@<TRIPOS>MOLECULE
ZINC000000527386
45    48    1     0     0
SMALL
USER_CHARGES
@<TRIPOS>ATOM
1      F1      0.0021   -0.0041    0.0020 F        1 ZINC000000527386   -0.1300
2      C2     -0.0162    1.3468    0.0094 C.ar     1 ZINC000000527386    0.1200
3      C3     -1.2242    2.0232    0.0304 C.ar     1 ZINC000000527386   -0.1500
4      C4     -1.2417    3.4050    0.0379 C.ar     1 ZINC000000527386   -0.0800
5      C5     -0.0538    4.1120    0.0246 C.ar     1 ZINC000000527386   -0.1200
6      C6     -0.0742    5.6188    0.0333 C.3      1 ZINC000000527386   -0.0500
7      H7     -1.1062    5.9693    0.0503 H        1 ZINC000000527386    0.1000
8      C8      0.6256    6.1477   -1.2220 C.3      1 ZINC000000527386   -0.1400
9      C9      0.6716    7.6763   -1.1679 C.3      1 ZINC000000527386   -0.0100
10     N10     1.4123    8.1053    0.0245 N.4      1 ZINC000000527386   -0.5100
11     H11     2.3369    7.7016    0.0081 H        1 ZINC000000527386    0.4300
12     H12     1.4857    9.1116    0.0296 H        1 ZINC000000527386    0.4400
13     C13     0.7082    7.6629    1.2341 C.3      1 ZINC000000527386   -0.0100
14     C14     0.6620    6.1338    1.2735 C.3      1 ZINC000000527386   -0.1000
15     H15     1.6779    5.7390    1.2817 H        1 ZINC000000527386    0.1100
16     C16    -0.0738    5.6772    2.5349 C.3      1 ZINC000000527386    0.0600
17     O17     0.6756    6.0622    3.6891 O.3      1 ZINC000000527386   -0.3100
18     C18     0.1567    5.7297    4.9012 C.ar     1 ZINC000000527386    0.1300
19     C19    -1.0452    5.0424    4.9756 C.ar     1 ZINC000000527386   -0.2000
20     C20    -1.5749    4.7036    6.2070 C.ar     1 ZINC000000527386   -0.0600
21     C21    -0.9063    5.0493    7.3694 C.ar     1 ZINC000000527386    0.0100
22     O22    -1.2092    4.8372    8.6844 O.3      1 ZINC000000527386   -0.3000
23     C23     0.0230    5.0426    9.4004 C.3      1 ZINC000000527386    0.2100
24     O24     0.7550    5.9595    8.5658 O.3      1 ZINC000000527386   -0.3000
25     C25     0.3016    5.7394    7.2972 C.ar     1 ZINC000000527386    0.0800
26     C26     0.8328    6.0731    6.0625 C.ar     1 ZINC000000527386   -0.1300
27     C27     1.1529    3.4377    0.0037 C.ar     1 ZINC000000527386   -0.0800
28     C28     1.1730    2.0559    0.0019 C.ar     1 ZINC000000527386   -0.1500
29     H29    -2.1524    1.4711    0.0405 H        1 ZINC000000527386    0.1400
30     H30    -2.1838    3.9329    0.0539 H        1 ZINC000000527386    0.1400
31     H31     1.6412    5.7544   -1.2656 H        1 ZINC000000527386    0.0900
32     H32     0.0737    5.8313   -2.1070 H        1 ZINC000000527386    0.1200
33     H33     1.1690    8.0562   -2.0603 H        1 ZINC000000527386    0.1400
34     H34    -0.3445    8.0686   -1.1246 H        1 ZINC000000527386    0.1300
35     H35     1.2328    8.0328    2.1151 H        1 ZINC000000527386    0.1400
36     H36    -0.3086    8.0554    1.2262 H        1 ZINC000000527386    0.1300
37     H37    -1.0589    6.1426    2.5694 H        1 ZINC000000527386    0.0800
38     H38    -0.1845    4.5930    2.5186 H        1 ZINC000000527386    0.0900
39     H39    -1.5686    4.7718    4.0705 H        1 ZINC000000527386    0.1400
40     H40    -2.5116    4.1689    6.2623 H        1 ZINC000000527386    0.1400
41     H41    -0.1709    5.4855   10.3774 H        1 ZINC000000527386    0.1400
42     H42     0.5661    4.1034    9.5056 H        1 ZINC000000527386    0.0900
43     H43     1.7722    6.6029    6.0040 H        1 ZINC000000527386    0.1400
44     H44     2.0803    3.9910   -0.0071 H        1 ZINC000000527386    0.1300
45     H45     2.1158    1.5293   -0.0145 H        1 ZINC000000527386    0.1400
@<TRIPOS>BOND
1     1     2     1
2     2     28    ar
3     2     3     ar
4     3     4     ar
5     3     29    1
6     4     5     ar
7     4     30    1
8     5     6     1
9     5     27    ar
10    6     7     1
11    6     14    1
12    6     8     1
13    8     9     1
14    8     31    1
15    8     32    1
16    9     10    1
17    9     33    1
18    9     34    1
19    10    11    1
20    10    12    1
21    10    13    1
22    13    14    1
23    13    35    1
24    13    36    1
25    14    15    1
26    14    16    1
27    16    17    1
28    16    37    1
29    16    38    1
30    17    18    1
31    18    26    ar
32    18    19    ar
33    19    20    ar
34    19    39    1
35    20    21    ar
36    20    40    1
37    21    25    ar
38    21    22    1
39    22    23    1
40    23    24    1
41    23    41    1
42    23    42    1
43    24    25    1
44    25    26    ar
45    26    43    1
46    27    28    ar
47    27    44    1
48    28    45    1
@<TRIPOS>SUBSTRUCTURE
1   ZINC000000527386 1     RESIDUE    1   A     ZIN   1
