MODEL 1
REMARK VINA RESULT:     -10.1      0.000      0.000
REMARK  4 active torsions:
REMARK  status: ('A' for Active; 'I' for Inactive)
REMARK    1  A    between atoms: C5_5  and  C6_6 
REMARK    2  A    between atoms: C14_13  and  C16_14 
REMARK    3  A    between atoms: C16_14  and  O17_15 
REMARK    4  A    between atoms: O17_15  and  C18_16 
ROOT
ATOM      1  C6  ZIN AC000      34.140 184.414 139.864  0.00  0.00     0.028 C 
ATOM      2  C8  ZIN AC000      34.953 184.934 138.675  0.00  0.00     0.037 C 
ATOM      3  C9  ZIN AC000      34.853 186.459 138.624  0.00  0.00     0.233 C 
ATOM      4  N10 ZIN AC000      35.383 187.030 139.868  0.00  0.00    -0.075 N 
ATOM      5  H11 ZIN AC000      36.335 186.720 140.000  0.00  0.00     0.277 HD
ATOM      6  H12 ZIN AC000      35.365 188.038 139.810  0.00  0.00     0.277 HD
ATOM      7  C13 ZIN AC000      34.565 186.593 141.005  0.00  0.00     0.239 C 
ATOM      8  C14 ZIN AC000      34.652 185.072 141.149  0.00  0.00     0.044 C 
ENDROOT
BRANCH   8   9
ATOM      9  C16 ZIN AC000      33.797 184.620 142.334  0.00  0.00     0.182 C 
BRANCH   9  10
ATOM     10  O17 ZIN AC000      32.431 184.964 142.093  0.00  0.00    -0.351 OA
BRANCH  10  11
ATOM     11  C18 ZIN AC000      31.575 184.867 143.146  0.00  0.00     0.071 A 
ATOM     12  C26 ZIN AC000      30.420 184.108 143.033  0.00  0.00     0.076 A 
ATOM     13  C25 ZIN AC000      29.551 184.005 144.106  0.00  0.00     0.107 A 
ATOM     14  C21 ZIN AC000      29.834 184.675 145.294  0.00  0.00     0.105 A 
ATOM     15  O24 ZIN AC000      28.373 183.331 144.254  0.00  0.00    -0.323 OA
ATOM     16  C20 ZIN AC000      30.986 185.436 145.401  0.00  0.00     0.042 A 
ATOM     17  O22 ZIN AC000      28.832 184.420 146.187  0.00  0.00    -0.323 OA
ATOM     18  C19 ZIN AC000      31.854 185.534 144.330  0.00  0.00     0.039 A 
ATOM     19  C23 ZIN AC000      27.734 183.923 145.400  0.00  0.00     0.352 C 
ENDBRANCH  10  11
ENDBRANCH   9  10
ENDBRANCH   8   9
BRANCH   1  20
ATOM     20  C5  ZIN AC000      34.297 182.918 139.967  0.00  0.00    -0.053 A 
ATOM     21  C4  ZIN AC000      35.485 182.378 140.425  0.00  0.00     0.010 A 
ATOM     22  C3  ZIN AC000      35.629 181.007 140.521  0.00  0.00     0.043 A 
ATOM     23  C2  ZIN AC000      34.583 180.174 140.158  0.00  0.00     0.116 A 
ATOM     24  F1  ZIN AC000      34.724 178.834 140.250  0.00  0.00    -0.206 F 
ATOM     25  C28 ZIN AC000      33.397 180.716 139.694  0.00  0.00     0.043 A 
ATOM     26  C27 ZIN AC000      33.253 182.088 139.605  0.00  0.00     0.010 A 
ENDBRANCH   1  20
TORSDOF 4
ENDMDL
MODEL 2
REMARK VINA RESULT:      -9.4      3.380      6.026
REMARK  4 active torsions:
REMARK  status: ('A' for Active; 'I' for Inactive)
REMARK    1  A    between atoms: C5_5  and  C6_6 
REMARK    2  A    between atoms: C14_13  and  C16_14 
REMARK    3  A    between atoms: C16_14  and  O17_15 
REMARK    4  A    between atoms: O17_15  and  C18_16 
ROOT
ATOM      1  C6  ZIN AC000      32.805 183.481 141.874  0.00  0.00     0.028 C 
ATOM      2  C8  ZIN AC000      31.275 183.420 141.855  0.00  0.00     0.037 C 
ATOM      3  C9  ZIN AC000      30.719 184.382 142.906  0.00  0.00     0.233 C 
ATOM      4  N10 ZIN AC000      31.160 185.749 142.605  0.00  0.00    -0.075 N 
ATOM      5  H11 ZIN AC000      30.864 185.999 141.673  0.00  0.00     0.277 HD
ATOM      6  H12 ZIN AC000      30.748 186.389 143.269  0.00  0.00     0.277 HD
ATOM      7  C13 ZIN AC000      32.622 185.832 142.692  0.00  0.00     0.239 C 
ATOM      8  C14 ZIN AC000      33.254 184.926 141.633  0.00  0.00     0.044 C 
ENDROOT
BRANCH   8   9
ATOM      9  C16 ZIN AC000      34.778 185.014 141.728  0.00  0.00     0.182 C 
BRANCH   9  10
ATOM     10  O17 ZIN AC000      35.191 184.693 143.058  0.00  0.00    -0.351 OA
BRANCH  10  11
ATOM     11  C18 ZIN AC000      36.217 183.810 143.190  0.00  0.00     0.071 A 
ATOM     12  C26 ZIN AC000      37.225 183.770 142.237  0.00  0.00     0.076 A 
ATOM     13  C25 ZIN AC000      38.271 182.874 142.374  0.00  0.00     0.107 A 
ATOM     14  C21 ZIN AC000      38.304 182.006 143.464  0.00  0.00     0.105 A 
ATOM     15  O24 ZIN AC000      39.369 182.641 141.597  0.00  0.00    -0.323 OA
ATOM     16  C20 ZIN AC000      37.293 182.046 144.409  0.00  0.00     0.042 A 
ATOM     17  O22 ZIN AC000      39.423 181.229 143.368  0.00  0.00    -0.323 OA
ATOM     18  C19 ZIN AC000      36.252 182.944 144.273  0.00  0.00     0.039 A 
ATOM     19  C23 ZIN AC000      39.857 181.348 142.000  0.00  0.00     0.352 C 
ENDBRANCH  10  11
ENDBRANCH   9  10
ENDBRANCH   8   9
BRANCH   1  20
ATOM     20  C5  ZIN AC000      33.360 182.594 140.789  0.00  0.00    -0.053 A 
ATOM     21  C4  ZIN AC000      34.363 181.689 141.081  0.00  0.00     0.010 A 
ATOM     22  C3  ZIN AC000      34.871 180.876 140.085  0.00  0.00     0.043 A 
ATOM     23  C2  ZIN AC000      34.375 180.967 138.796  0.00  0.00     0.116 A 
ATOM     24  F1  ZIN AC000      34.872 180.172 137.823  0.00  0.00    -0.206 F 
ATOM     25  C28 ZIN AC000      33.374 181.877 138.504  0.00  0.00     0.043 A 
ATOM     26  C27 ZIN AC000      32.863 182.686 139.502  0.00  0.00     0.010 A 
ENDBRANCH   1  20
TORSDOF 4
ENDMDL
MODEL 3
REMARK VINA RESULT:      -9.3      3.456      6.410
REMARK  4 active torsions:
REMARK  status: ('A' for Active; 'I' for Inactive)
REMARK    1  A    between atoms: C5_5  and  C6_6 
REMARK    2  A    between atoms: C14_13  and  C16_14 
REMARK    3  A    between atoms: C16_14  and  O17_15 
REMARK    4  A    between atoms: O17_15  and  C18_16 
ROOT
ATOM      1  C6  ZIN AC000      32.611 183.276 141.748  0.00  0.00     0.028 C 
ATOM      2  C8  ZIN AC000      31.498 184.191 141.231  0.00  0.00     0.037 C 
ATOM      3  C9  ZIN AC000      30.828 184.891 142.415  0.00  0.00     0.233 C 
ATOM      4  N10 ZIN AC000      31.823 185.688 143.143  0.00  0.00    -0.075 N 
ATOM      5  H11 ZIN AC000      32.251 186.348 142.511  0.00  0.00     0.277 HD
ATOM      6  H12 ZIN AC000      31.368 186.190 143.892  0.00  0.00     0.277 HD
ATOM      7  C13 ZIN AC000      32.855 184.809 143.703  0.00  0.00     0.239 C 
ATOM      8  C14 ZIN AC000      33.603 184.105 142.569  0.00  0.00     0.044 C 
ENDROOT
BRANCH   8   9
ATOM      9  C16 ZIN AC000      34.677 183.187 143.157  0.00  0.00     0.182 C 
BRANCH   9  10
ATOM     10  O17 ZIN AC000      35.964 183.605 142.696  0.00  0.00    -0.351 OA
BRANCH  10  11
ATOM     11  C18 ZIN AC000      36.872 182.628 142.435  0.00  0.00     0.071 A 
ATOM     12  C26 ZIN AC000      36.473 181.300 142.402  0.00  0.00     0.076 A 
ATOM     13  C25 ZIN AC000      37.398 180.305 142.131  0.00  0.00     0.107 A 
ATOM     14  C21 ZIN AC000      38.730 180.641 141.902  0.00  0.00     0.105 A 
ATOM     15  O24 ZIN AC000      37.266 178.950 142.037  0.00  0.00    -0.323 OA
ATOM     16  C20 ZIN AC000      39.126 181.967 141.941  0.00  0.00     0.042 A 
ATOM     17  O22 ZIN AC000      39.434 179.494 141.666  0.00  0.00    -0.323 OA
ATOM     18  C19 ZIN AC000      38.200 182.958 142.208  0.00  0.00     0.039 A 
ATOM     19  C23 ZIN AC000      38.601 178.425 142.154  0.00  0.00     0.352 C 
ENDBRANCH  10  11
ENDBRANCH   9  10
ENDBRANCH   8   9
BRANCH   1  20
ATOM     20  C5  ZIN AC000      33.326 182.643 140.583  0.00  0.00    -0.053 A 
ATOM     21  C4  ZIN AC000      33.146 181.300 140.307  0.00  0.00     0.010 A 
ATOM     22  C3  ZIN AC000      33.802 180.720 139.238  0.00  0.00     0.043 A 
ATOM     23  C2  ZIN AC000      34.639 181.483 138.443  0.00  0.00     0.116 A 
ATOM     24  F1  ZIN AC000      35.281 180.916 137.398  0.00  0.00    -0.206 F 
ATOM     25  C28 ZIN AC000      34.823 182.826 138.723  0.00  0.00     0.043 A 
ATOM     26  C27 ZIN AC000      34.162 183.407 139.789  0.00  0.00     0.010 A 
ENDBRANCH   1  20
TORSDOF 4
ENDMDL
MODEL 4
REMARK VINA RESULT:      -9.0      3.523      6.126
REMARK  4 active torsions:
REMARK  status: ('A' for Active; 'I' for Inactive)
REMARK    1  A    between atoms: C5_5  and  C6_6 
REMARK    2  A    between atoms: C14_13  and  C16_14 
REMARK    3  A    between atoms: C16_14  and  O17_15 
REMARK    4  A    between atoms: O17_15  and  C18_16 
ROOT
ATOM      1  C6  ZIN AC000      33.962 184.914 141.229  0.00  0.00     0.028 C 
ATOM      2  C8  ZIN AC000      34.081 186.278 140.544  0.00  0.00     0.037 C 
ATOM      3  C9  ZIN AC000      35.139 186.199 139.442  0.00  0.00     0.233 C 
ATOM      4  N10 ZIN AC000      34.747 185.186 138.455  0.00  0.00    -0.075 N 
ATOM      5  H11 ZIN AC000      33.837 185.413 138.085  0.00  0.00     0.277 HD
ATOM      6  H12 ZIN AC000      35.420 185.173 137.702  0.00  0.00     0.277 HD
ATOM      7  C13 ZIN AC000      34.702 183.863 139.089  0.00  0.00     0.239 C 
ATOM      8  C14 ZIN AC000      33.627 183.851 140.178  0.00  0.00     0.044 C 
ENDROOT
BRANCH   8   9
ATOM      9  C16 ZIN AC000      33.584 182.471 140.838  0.00  0.00     0.182 C 
BRANCH   9  10
ATOM     10  O17 ZIN AC000      34.916 181.975 140.991  0.00  0.00    -0.351 OA
BRANCH  10  11
ATOM     11  C18 ZIN AC000      35.568 182.304 142.138  0.00  0.00     0.071 A 
ATOM     12  C26 ZIN AC000      36.847 182.840 142.080  0.00  0.00     0.076 A 
ATOM     13  C25 ZIN AC000      37.509 183.179 143.248  0.00  0.00     0.107 A 
ATOM     14  C21 ZIN AC000      36.893 182.970 144.480  0.00  0.00     0.105 A 
ATOM     15  O24 ZIN AC000      38.745 183.716 143.462  0.00  0.00    -0.323 OA
ATOM     16  C20 ZIN AC000      35.619 182.431 144.534  0.00  0.00     0.042 A 
ATOM     17  O22 ZIN AC000      37.746 183.377 145.467  0.00  0.00    -0.323 OA
ATOM     18  C19 ZIN AC000      34.959 182.097 143.367  0.00  0.00     0.039 A 
ATOM     19  C23 ZIN AC000      39.042 183.455 144.847  0.00  0.00     0.352 C 
ENDBRANCH  10  11
ENDBRANCH   9  10
ENDBRANCH   8   9
BRANCH   1  20
ATOM     20  C5  ZIN AC000      32.867 184.962 142.264  0.00  0.00    -0.053 A 
ATOM     21  C4  ZIN AC000      31.586 184.560 141.933  0.00  0.00     0.010 A 
ATOM     22  C3  ZIN AC000      30.582 184.603 142.881  0.00  0.00     0.043 A 
ATOM     23  C2  ZIN AC000      30.859 185.049 144.163  0.00  0.00     0.116 A 
ATOM     24  F1  ZIN AC000      29.877 185.092 145.090  0.00  0.00    -0.206 F 
ATOM     25  C28 ZIN AC000      32.140 185.456 144.491  0.00  0.00     0.043 A 
ATOM     26  C27 ZIN AC000      33.145 185.407 143.543  0.00  0.00     0.010 A 
ENDBRANCH   1  20
TORSDOF 4
ENDMDL
MODEL 5
REMARK VINA RESULT:      -8.8      3.623      6.900
REMARK  4 active torsions:
REMARK  status: ('A' for Active; 'I' for Inactive)
REMARK    1  A    between atoms: C5_5  and  C6_6 
REMARK    2  A    between atoms: C14_13  and  C16_14 
REMARK    3  A    between atoms: C16_14  and  O17_15 
REMARK    4  A    between atoms: O17_15  and  C18_16 
ROOT
ATOM      1  C6  ZIN AC000      33.860 184.925 141.508  0.00  0.00     0.028 C 
ATOM      2  C8  ZIN AC000      33.890 186.230 140.707  0.00  0.00     0.037 C 
ATOM      3  C9  ZIN AC000      34.982 186.144 139.640  0.00  0.00     0.233 C 
ATOM      4  N10 ZIN AC000      34.701 185.020 138.738  0.00  0.00    -0.075 N 
ATOM      5  H11 ZIN AC000      33.786 185.140 138.329  0.00  0.00     0.277 HD
ATOM      6  H12 ZIN AC000      35.394 184.998 138.004  0.00  0.00     0.277 HD
ATOM      7  C13 ZIN AC000      34.743 183.758 139.485  0.00  0.00     0.239 C 
ATOM      8  C14 ZIN AC000      33.642 183.751 140.547  0.00  0.00     0.044 C 
ENDROOT
BRANCH   8   9
ATOM      9  C16 ZIN AC000      33.689 182.435 141.325  0.00  0.00     0.182 C 
BRANCH   9  10
ATOM     10  O17 ZIN AC000      34.632 182.547 142.393  0.00  0.00    -0.351 OA
BRANCH  10  11
ATOM     11  C18 ZIN AC000      35.825 181.916 142.231  0.00  0.00     0.071 A 
ATOM     12  C26 ZIN AC000      35.880 180.530 142.208  0.00  0.00     0.076 A 
ATOM     13  C25 ZIN AC000      37.094 179.887 142.039  0.00  0.00     0.107 A 
ATOM     14  C21 ZIN AC000      38.262 180.635 141.902  0.00  0.00     0.105 A 
ATOM     15  O24 ZIN AC000      37.414 178.561 141.976  0.00  0.00    -0.323 OA
ATOM     16  C20 ZIN AC000      38.204 182.018 141.930  0.00  0.00     0.042 A 
ATOM     17  O22 ZIN AC000      39.314 179.776 141.754  0.00  0.00    -0.323 OA
ATOM     18  C19 ZIN AC000      36.990 182.657 142.095  0.00  0.00     0.039 A 
ATOM     19  C23 ZIN AC000      38.833 178.498 142.211  0.00  0.00     0.352 C 
ENDBRANCH  10  11
ENDBRANCH   9  10
ENDBRANCH   8   9
BRANCH   1  20
ATOM     20  C5  ZIN AC000      32.735 184.972 142.509  0.00  0.00    -0.053 A 
ATOM     21  C4  ZIN AC000      31.469 184.553 142.147  0.00  0.00     0.010 A 
ATOM     22  C3  ZIN AC000      30.437 184.595 143.066  0.00  0.00     0.043 A 
ATOM     23  C2  ZIN AC000      30.673 185.058 144.349  0.00  0.00     0.116 A 
ATOM     24  F1  ZIN AC000      29.664 185.100 145.247  0.00  0.00    -0.206 F 
ATOM     25  C28 ZIN AC000      31.940 185.482 144.709  0.00  0.00     0.043 A 
ATOM     26  C27 ZIN AC000      32.972 185.434 143.791  0.00  0.00     0.010 A 
ENDBRANCH   1  20
TORSDOF 4
ENDMDL
MODEL 6
REMARK VINA RESULT:      -8.6      4.576      7.468
REMARK  4 active torsions:
REMARK  status: ('A' for Active; 'I' for Inactive)
REMARK    1  A    between atoms: C5_5  and  C6_6 
REMARK    2  A    between atoms: C14_13  and  C16_14 
REMARK    3  A    between atoms: C16_14  and  O17_15 
REMARK    4  A    between atoms: O17_15  and  C18_16 
ROOT
ATOM      1  C6  ZIN AC000      33.874 183.050 140.687  0.00  0.00     0.028 C 
ATOM      2  C8  ZIN AC000      32.753 182.852 139.662  0.00  0.00     0.037 C 
ATOM      3  C9  ZIN AC000      33.220 181.871 138.586  0.00  0.00     0.233 C 
ATOM      4  N10 ZIN AC000      33.552 180.582 139.205  0.00  0.00    -0.075 N 
ATOM      5  H11 ZIN AC000      32.748 180.234 139.707  0.00  0.00     0.277 HD
ATOM      6  H12 ZIN AC000      33.810 179.921 138.487  0.00  0.00     0.277 HD
ATOM      7  C13 ZIN AC000      34.674 180.750 140.136  0.00  0.00     0.239 C 
ATOM      8  C14 ZIN AC000      34.265 181.689 141.273  0.00  0.00     0.044 C 
ENDROOT
BRANCH   8   9
ATOM      9  C16 ZIN AC000      35.437 181.863 142.240  0.00  0.00     0.182 C 
BRANCH   9  10
ATOM     10  O17 ZIN AC000      36.574 182.353 141.526  0.00  0.00    -0.351 OA
BRANCH  10  11
ATOM     11  C18 ZIN AC000      37.614 182.818 142.267  0.00  0.00     0.071 A 
ATOM     12  C26 ZIN AC000      38.918 182.530 141.890  0.00  0.00     0.076 A 
ATOM     13  C25 ZIN AC000      39.978 183.008 142.642  0.00  0.00     0.107 A 
ATOM     14  C21 ZIN AC000      39.732 183.769 143.782  0.00  0.00     0.105 A 
ATOM     15  O24 ZIN AC000      41.328 182.876 142.488  0.00  0.00    -0.323 OA
ATOM     16  C20 ZIN AC000      38.429 184.050 144.158  0.00  0.00     0.042 A 
ATOM     17  O22 ZIN AC000      40.929 184.113 144.344  0.00  0.00    -0.323 OA
ATOM     18  C19 ZIN AC000      37.373 183.575 143.403  0.00  0.00     0.039 A 
ATOM     19  C23 ZIN AC000      41.895 183.214 143.768  0.00  0.00     0.352 C 
ENDBRANCH  10  11
ENDBRANCH   9  10
ENDBRANCH   8   9
BRANCH   1  20
ATOM     20  C5  ZIN AC000      33.393 183.954 141.793  0.00  0.00    -0.053 A 
ATOM     21  C4  ZIN AC000      34.214 184.961 142.267  0.00  0.00     0.010 A 
ATOM     22  C3  ZIN AC000      33.773 185.791 143.281  0.00  0.00     0.043 A 
ATOM     23  C2  ZIN AC000      32.511 185.615 143.820  0.00  0.00     0.116 A 
ATOM     24  F1  ZIN AC000      32.080 186.426 144.812  0.00  0.00    -0.206 F 
ATOM     25  C28 ZIN AC000      31.693 184.603 143.348  0.00  0.00     0.043 A 
ATOM     26  C27 ZIN AC000      32.132 183.777 142.331  0.00  0.00     0.010 A 
ENDBRANCH   1  20
TORSDOF 4
ENDMDL
MODEL 7
REMARK VINA RESULT:      -8.3      5.353      7.908
REMARK  4 active torsions:
REMARK  status: ('A' for Active; 'I' for Inactive)
REMARK    1  A    between atoms: C5_5  and  C6_6 
REMARK    2  A    between atoms: C14_13  and  C16_14 
REMARK    3  A    between atoms: C16_14  and  O17_15 
REMARK    4  A    between atoms: O17_15  and  C18_16 
ROOT
ATOM      1  C6  ZIN AC000      40.392 180.045 142.694  0.00  0.00     0.028 C 
ATOM      2  C8  ZIN AC000      41.444 178.939 142.571  0.00  0.00     0.037 C 
ATOM      3  C9  ZIN AC000      40.803 177.593 142.913  0.00  0.00     0.233 C 
ATOM      4  N10 ZIN AC000      39.696 177.324 141.987  0.00  0.00    -0.075 N 
ATOM      5  H11 ZIN AC000      40.041 177.345 141.039  0.00  0.00     0.277 HD
ATOM      6  H12 ZIN AC000      39.309 176.412 142.181  0.00  0.00     0.277 HD
ATOM      7  C13 ZIN AC000      38.651 178.341 142.150  0.00  0.00     0.239 C 
ATOM      8  C14 ZIN AC000      39.208 179.717 141.779  0.00  0.00     0.044 C 
ENDROOT
BRANCH   8   9
ATOM      9  C16 ZIN AC000      38.116 180.774 141.951  0.00  0.00     0.182 C 
BRANCH   9  10
ATOM     10  O17 ZIN AC000      36.871 180.131 142.230  0.00  0.00    -0.351 OA
BRANCH  10  11
ATOM     11  C18 ZIN AC000      35.776 180.592 141.569  0.00  0.00     0.071 A 
ATOM     12  C26 ZIN AC000      35.334 181.890 141.780  0.00  0.00     0.076 A 
ATOM     13  C25 ZIN AC000      34.222 182.361 141.103  0.00  0.00     0.107 A 
ATOM     14  C21 ZIN AC000      33.543 181.526 140.218  0.00  0.00     0.105 A 
ATOM     15  O24 ZIN AC000      33.597 183.575 141.125  0.00  0.00    -0.323 OA
ATOM     16  C20 ZIN AC000      33.984 180.230 140.014  0.00  0.00     0.042 A 
ATOM     17  O22 ZIN AC000      32.491 182.218 139.687  0.00  0.00    -0.323 OA
ATOM     18  C19 ZIN AC000      35.097 179.763 140.688  0.00  0.00     0.039 A 
ATOM     19  C23 ZIN AC000      32.293 183.345 140.560  0.00  0.00     0.352 C 
ENDBRANCH  10  11
ENDBRANCH   9  10
ENDBRANCH   8   9
BRANCH   1  20
ATOM     20  C5  ZIN AC000      40.995 181.364 142.282  0.00  0.00    -0.053 A 
ATOM     21  C4  ZIN AC000      40.936 182.448 143.138  0.00  0.00     0.010 A 
ATOM     22  C3  ZIN AC000      41.490 183.657 142.762  0.00  0.00     0.043 A 
ATOM     23  C2  ZIN AC000      42.105 183.782 141.527  0.00  0.00     0.116 A 
ATOM     24  F1  ZIN AC000      42.646 184.964 141.159  0.00  0.00    -0.206 F 
ATOM     25  C28 ZIN AC000      42.159 182.697 140.669  0.00  0.00     0.043 A 
ATOM     26  C27 ZIN AC000      41.609 181.487 141.050  0.00  0.00     0.010 A 
ENDBRANCH   1  20
TORSDOF 4
ENDMDL
MODEL 8
REMARK VINA RESULT:      -7.8      7.225      9.486
REMARK  4 active torsions:
REMARK  status: ('A' for Active; 'I' for Inactive)
REMARK    1  A    between atoms: C5_5  and  C6_6 
REMARK    2  A    between atoms: C14_13  and  C16_14 
REMARK    3  A    between atoms: C16_14  and  O17_15 
REMARK    4  A    between atoms: O17_15  and  C18_16 
ROOT
ATOM      1  C6  ZIN AC000      42.643 178.298 140.118  0.00  0.00     0.028 C 
ATOM      2  C8  ZIN AC000      44.104 178.464 139.691  0.00  0.00     0.037 C 
ATOM      3  C9  ZIN AC000      44.288 179.838 139.045  0.00  0.00     0.233 C 
ATOM      4  N10 ZIN AC000      43.936 180.887 140.010  0.00  0.00    -0.075 N 
ATOM      5  H11 ZIN AC000      44.502 180.783 140.839  0.00  0.00     0.277 HD
ATOM      6  H12 ZIN AC000      44.109 181.793 139.599  0.00  0.00     0.277 HD
ATOM      7  C13 ZIN AC000      42.518 180.778 140.369  0.00  0.00     0.239 C 
ATOM      8  C14 ZIN AC000      42.263 179.440 141.065  0.00  0.00     0.044 C 
ENDROOT
BRANCH   8   9
ATOM      9  C16 ZIN AC000      40.783 179.329 141.437  0.00  0.00     0.182 C 
BRANCH   9  10
ATOM     10  O17 ZIN AC000      40.596 179.776 142.782  0.00  0.00    -0.351 OA
BRANCH  10  11
ATOM     11  C18 ZIN AC000      39.405 180.362 143.077  0.00  0.00     0.071 A 
ATOM     12  C26 ZIN AC000      38.228 179.636 142.969  0.00  0.00     0.076 A 
ATOM     13  C25 ZIN AC000      37.017 180.232 143.274  0.00  0.00     0.107 A 
ATOM     14  C21 ZIN AC000      36.981 181.564 143.678  0.00  0.00     0.105 A 
ATOM     15  O24 ZIN AC000      35.741 179.746 143.256  0.00  0.00    -0.323 OA
ATOM     16  C20 ZIN AC000      38.157 182.287 143.780  0.00  0.00     0.042 A 
ATOM     17  O22 ZIN AC000      35.682 181.914 143.913  0.00  0.00    -0.323 OA
ATOM     18  C19 ZIN AC000      39.367 181.689 143.479  0.00  0.00     0.039 A 
ATOM     19  C23 ZIN AC000      34.889 180.907 143.257  0.00  0.00     0.352 C 
ENDBRANCH  10  11
ENDBRANCH   9  10
ENDBRANCH   8   9
BRANCH   1  20
ATOM     20  C5  ZIN AC000      42.471 176.978 140.825  0.00  0.00    -0.053 A 
ATOM     21  C4  ZIN AC000      41.202 176.486 141.070  0.00  0.00     0.010 A 
ATOM     22  C3  ZIN AC000      41.044 175.275 141.718  0.00  0.00     0.043 A 
ATOM     23  C2  ZIN AC000      42.156 174.556 142.121  0.00  0.00     0.116 A 
ATOM     24  F1  ZIN AC000      42.001 173.373 142.755  0.00  0.00    -0.206 F 
ATOM     25  C28 ZIN AC000      43.425 175.052 141.880  0.00  0.00     0.043 A 
ATOM     26  C27 ZIN AC000      43.582 176.260 141.227  0.00  0.00     0.010 A 
ENDBRANCH   1  20
TORSDOF 4
ENDMDL
MODEL 9
REMARK VINA RESULT:      -7.7     12.338     15.615
REMARK  4 active torsions:
REMARK  status: ('A' for Active; 'I' for Inactive)
REMARK    1  A    between atoms: C5_5  and  C6_6 
REMARK    2  A    between atoms: C14_13  and  C16_14 
REMARK    3  A    between atoms: C16_14  and  O17_15 
REMARK    4  A    between atoms: O17_15  and  C18_16 
ROOT
ATOM      1  C6  ZIN AC000      47.534 174.195 139.875  0.00  0.00     0.028 C 
ATOM      2  C8  ZIN AC000      47.957 173.482 138.587  0.00  0.00     0.037 C 
ATOM      3  C9  ZIN AC000      47.912 171.970 138.810  0.00  0.00     0.233 C 
ATOM      4  N10 ZIN AC000      46.547 171.565 139.169  0.00  0.00    -0.075 N 
ATOM      5  H11 ZIN AC000      45.909 171.857 138.444  0.00  0.00     0.277 HD
ATOM      6  H12 ZIN AC000      46.509 170.560 139.264  0.00  0.00     0.277 HD
ATOM      7  C13 ZIN AC000      46.161 172.188 140.440  0.00  0.00     0.239 C 
ATOM      8  C14 ZIN AC000      46.139 173.710 140.283  0.00  0.00     0.044 C 
ENDROOT
BRANCH   8   9
ATOM      9  C16 ZIN AC000      45.738 174.356 141.610  0.00  0.00     0.182 C 
BRANCH   9  10
ATOM     10  O17 ZIN AC000      44.435 173.903 141.985  0.00  0.00    -0.351 OA
BRANCH  10  11
ATOM     11  C18 ZIN AC000      43.406 174.776 141.815  0.00  0.00     0.071 A 
ATOM     12  C26 ZIN AC000      43.658 176.070 141.383  0.00  0.00     0.076 A 
ATOM     13  C25 ZIN AC000      42.610 176.957 141.206  0.00  0.00     0.107 A 
ATOM     14  C21 ZIN AC000      41.304 176.550 141.472  0.00  0.00     0.105 A 
ATOM     15  O24 ZIN AC000      42.587 178.258 140.794  0.00  0.00    -0.323 OA
ATOM     16  C20 ZIN AC000      41.058 175.259 141.908  0.00  0.00     0.042 A 
ATOM     17  O22 ZIN AC000      40.463 177.598 141.227  0.00  0.00    -0.323 OA
ATOM     18  C19 ZIN AC000      42.105 174.374 142.080  0.00  0.00     0.039 A 
ATOM     19  C23 ZIN AC000      41.303 178.767 141.201  0.00  0.00     0.352 C 
ENDBRANCH  10  11
ENDBRANCH   9  10
ENDBRANCH   8   9
BRANCH   1  20
ATOM     20  C5  ZIN AC000      47.500 175.684 139.640  0.00  0.00    -0.053 A 
ATOM     21  C4  ZIN AC000      46.573 176.225 138.770  0.00  0.00     0.010 A 
ATOM     22  C3  ZIN AC000      46.541 177.590 138.555  0.00  0.00     0.043 A 
ATOM     23  C2  ZIN AC000      47.439 178.415 139.212  0.00  0.00     0.116 A 
ATOM     24  F1  ZIN AC000      47.409 179.749 139.002  0.00  0.00    -0.206 F 
ATOM     25  C28 ZIN AC000      48.371 177.870 140.079  0.00  0.00     0.043 A 
ATOM     26  C27 ZIN AC000      48.397 176.506 140.297  0.00  0.00     0.010 A 
ENDBRANCH   1  20
TORSDOF 4
ENDMDL
