REMARK  5 active torsions:
REMARK  status: ('A' for Active; 'I' for Inactive)
REMARK    1  A    between atoms: C5_10  and  O1_1 
REMARK    2  A    between atoms: C8_13  and  O2_2 
REMARK    3  A    between atoms: C21_26  and  O4_4 
REMARK    4  A    between atoms: C17_22  and  C5_10 
REMARK    5  A    between atoms: C17_22  and  C21_26 
ROOT
HETATM    1  O5  ***     1     -76.477   9.965 133.645  1.00  0.00    -0.293 OA
HETATM    2  C1  ***     1     -77.790  17.952 131.335  1.00  0.00     0.001 C 
HETATM    3  C2  ***     1     -76.992  17.364 132.548  1.00  0.00     0.002 C 
HETATM    4  C3  ***     1     -77.662  16.114 133.209  1.00  0.00    -0.002 C 
HETATM    5  C4  ***     1     -77.763  14.952 132.147  1.00  0.00     0.031 C 
HETATM    6  C5  ***     1     -76.927  19.245 130.997  1.00  0.00     0.128 C 
HETATM    7  C6  ***     1     -77.809  16.804 130.256  1.00  0.00     0.045 C 
HETATM    8  C7  ***     1     -78.329  13.586 132.758  1.00  0.00    -0.014 C 
HETATM    9  C8  ***     1     -78.383  15.439 130.774  1.00  0.00     0.124 C 
HETATM   10  C9  ***     1     -76.684  18.589 133.423  1.00  0.00     0.009 C 
HETATM   11  C10 ***     1     -76.294  19.659 132.382  1.00  0.00     0.047 C 
HETATM   12  C11 ***     1     -76.881  15.637 134.467  1.00  0.00     0.010 C 
HETATM   13  C12 ***     1     -79.270  18.371 131.696  1.00  0.00     0.019 C 
HETATM   14  C13 ***     1     -77.606  13.283 134.039  1.00  0.00    -0.068 C 
HETATM   15  C14 ***     1     -77.487  14.344 135.051  1.00  0.00     0.035 C 
HETATM   16  C15 ***     1     -78.110  12.426 131.699  1.00  0.00     0.022 C 
HETATM   17  C16 ***     1     -79.863  13.659 133.100  1.00  0.00     0.020 C 
HETATM   18  C18 ***     1     -78.143  11.012 132.331  1.00  0.00     0.084 C 
HETATM   19  C19 ***     1     -77.078  12.064 134.308  1.00  0.00     0.053 C 
HETATM   20  C20 ***     1     -77.191  10.978 133.458  1.00  0.00     0.149 C 
ENDROOT
BRANCH   6  21
HETATM   21  C17 ***     1     -77.652  20.382 130.315  1.00  0.00     0.184 C 
HETATM   22  O3  ***     1     -78.108  21.334 130.995  1.00  0.00    -0.292 OA
BRANCH  21  23
HETATM   23  C21 ***     1     -77.911  20.467 128.858  1.00  0.00     0.245 C 
BRANCH  23  24
HETATM   24  O4  ***     1     -79.002  19.626 128.511  1.00  0.00    -0.393 OA
HETATM   25  H30 ***     1     -79.202  19.838 127.574  1.00  0.00     0.209 HD
ENDBRANCH  23  24
ENDBRANCH  21  23
ENDBRANCH   6  21
BRANCH   6  26
HETATM   26  O1  ***     1     -75.805  18.902 130.166  1.00  0.00    -0.381 OA
HETATM   27  H23 ***     1     -76.174  18.586 129.315  1.00  0.00     0.211 HD
ENDBRANCH   6  26
BRANCH   9  28
HETATM   28  O2  ***     1     -79.807  15.504 130.795  1.00  0.00    -0.395 OA
HETATM   29  H26 ***     1     -80.081  15.603 129.858  1.00  0.00     0.210 HD
ENDBRANCH   9  28
TORSDOF 5
