MODEL 1
REMARK VINA RESULT:      -8.1      0.000      0.000
REMARK  5 active torsions:
REMARK  status: ('A' for Active; 'I' for Inactive)
REMARK    1  A    between atoms: C5_10  and  O1_1 
REMARK    2  A    between atoms: C8_13  and  O2_2 
REMARK    3  A    between atoms: C21_26  and  O4_4 
REMARK    4  A    between atoms: C17_22  and  C5_10 
REMARK    5  A    between atoms: C17_22  and  C21_26 
ROOT
HETATM    1  O5  ***     1      51.336 180.231 176.289  1.00  0.00    -0.293 OA
HETATM    2  C1  ***     1      47.420 174.671 181.248  1.00  0.00     0.001 C 
HETATM    3  C2  ***     1      48.211 174.459 179.913  1.00  0.00     0.002 C 
HETATM    4  C3  ***     1      47.983 175.583 178.849  1.00  0.00    -0.002 C 
HETATM    5  C4  ***     1      48.471 176.964 179.433  1.00  0.00     0.031 C 
HETATM    6  C5  ***     1      47.766 173.328 182.027  1.00  0.00     0.128 C 
HETATM    7  C6  ***     1      47.980 176.013 181.854  1.00  0.00     0.045 C 
HETATM    8  C7  ***     1      48.388 178.162 178.376  1.00  0.00    -0.014 C 
HETATM    9  C8  ***     1      47.902 177.243 180.884  1.00  0.00     0.124 C 
HETATM   10  C9  ***     1      47.913 173.002 179.527  1.00  0.00     0.009 C 
HETATM   11  C10 ***     1      48.005 172.268 180.882  1.00  0.00     0.047 C 
HETATM   12  C11 ***     1      48.711 175.269 177.510  1.00  0.00     0.010 C 
HETATM   13  C12 ***     1      45.857 174.788 181.044  1.00  0.00     0.019 C 
HETATM   14  C13 ***     1      48.994 177.714 177.076  1.00  0.00    -0.068 C 
HETATM   15  C14 ***     1      48.567 176.429 176.503  1.00  0.00     0.035 C 
HETATM   16  C15 ***     1      49.169 179.412 178.961  1.00  0.00     0.022 C 
HETATM   17  C16 ***     1      46.910 178.603 178.067  1.00  0.00     0.020 C 
HETATM   18  C18 ***     1      49.589 180.430 177.872  1.00  0.00     0.084 C 
HETATM   19  C19 ***     1      49.903 178.459 176.401  1.00  0.00     0.053 C 
HETATM   20  C20 ***     1      50.324 179.711 176.813  1.00  0.00     0.149 C 
ENDROOT
BRANCH   6  21
HETATM   21  C17 ***     1      46.763 172.867 183.059  1.00  0.00     0.184 C 
HETATM   22  O3  ***     1      46.539 173.569 184.075  1.00  0.00    -0.292 OA
BRANCH  21  23
HETATM   23  C21 ***     1      46.006 171.594 182.993  1.00  0.00     0.245 C 
BRANCH  23  24
HETATM   24  O4  ***     1      46.309 170.792 184.126  1.00  0.00    -0.393 OA
HETATM   25  H30 ***     1      47.136 171.170 184.494  1.00  0.00     0.209 HD
ENDBRANCH  23  24
ENDBRANCH  21  23
ENDBRANCH   6  21
BRANCH   6  26
HETATM   26  O1  ***     1      49.034 173.442 182.694  1.00  0.00    -0.381 OA
HETATM   27  H23 ***     1      49.106 172.669 183.292  1.00  0.00     0.211 HD
ENDBRANCH   6  26
BRANCH   9  28
HETATM   28  O2  ***     1      46.570 177.752 180.874  1.00  0.00    -0.395 OA
HETATM   29  H26 ***     1      46.113 177.280 180.145  1.00  0.00     0.210 HD
ENDBRANCH   9  28
TORSDOF 5
ENDMDL
MODEL 2
REMARK VINA RESULT:      -7.5     14.553     16.233
REMARK  5 active torsions:
REMARK  status: ('A' for Active; 'I' for Inactive)
REMARK    1  A    between atoms: C5_10  and  O1_1 
REMARK    2  A    between atoms: C8_13  and  O2_2 
REMARK    3  A    between atoms: C21_26  and  O4_4 
REMARK    4  A    between atoms: C17_22  and  C5_10 
REMARK    5  A    between atoms: C17_22  and  C21_26 
ROOT
HETATM    1  O5  ***     1      55.550 179.123 162.735  1.00  0.00    -0.293 OA
HETATM    2  C1  ***     1      48.820 174.396 164.528  1.00  0.00     0.001 C 
HETATM    3  C2  ***     1      48.940 175.938 164.277  1.00  0.00     0.002 C 
HETATM    4  C3  ***     1      50.226 176.587 164.887  1.00  0.00    -0.002 C 
HETATM    5  C4  ***     1      51.504 175.936 164.230  1.00  0.00     0.031 C 
HETATM    6  C5  ***     1      47.385 174.095 163.911  1.00  0.00     0.128 C 
HETATM    7  C6  ***     1      50.061 173.759 163.796  1.00  0.00     0.045 C 
HETATM    8  C7  ***     1      52.873 176.615 164.702  1.00  0.00    -0.014 C 
HETATM    9  C8  ***     1      51.445 174.354 164.232  1.00  0.00     0.124 C 
HETATM   10  C9  ***     1      47.566 176.492 164.683  1.00  0.00     0.009 C 
HETATM   11  C10 ***     1      46.593 175.447 164.098  1.00  0.00     0.047 C 
HETATM   12  C11 ***     1      50.241 178.131 164.695  1.00  0.00     0.010 C 
HETATM   13  C12 ***     1      48.842 174.003 166.058  1.00  0.00     0.019 C 
HETATM   14  C13 ***     1      52.740 178.108 164.608  1.00  0.00    -0.068 C 
HETATM   15  C14 ***     1      51.559 178.751 165.205  1.00  0.00     0.035 C 
HETATM   16  C15 ***     1      54.047 176.094 163.772  1.00  0.00     0.022 C 
HETATM   17  C16 ***     1      53.239 176.277 166.195  1.00  0.00     0.020 C 
HETATM   18  C18 ***     1      55.289 177.019 163.786  1.00  0.00     0.084 C 
HETATM   19  C19 ***     1      53.676 178.888 164.015  1.00  0.00     0.053 C 
HETATM   20  C20 ***     1      54.854 178.396 163.482  1.00  0.00     0.149 C 
ENDROOT
BRANCH   6  21
HETATM   21  C17 ***     1      46.649 172.897 164.465  1.00  0.00     0.184 C 
HETATM   22  O3  ***     1      45.987 173.003 165.527  1.00  0.00    -0.292 OA
BRANCH  21  23
HETATM   23  C21 ***     1      46.661 171.544 163.861  1.00  0.00     0.245 C 
BRANCH  23  24
HETATM   24  O4  ***     1      45.552 171.396 162.985  1.00  0.00    -0.393 OA
HETATM   25  H30 ***     1      45.508 172.238 162.483  1.00  0.00     0.209 HD
ENDBRANCH  23  24
ENDBRANCH  21  23
ENDBRANCH   6  21
BRANCH   6  26
HETATM   26  O1  ***     1      47.474 173.914 162.488  1.00  0.00    -0.381 OA
HETATM   27  H23 ***     1      46.867 174.568 162.084  1.00  0.00     0.211 HD
ENDBRANCH   6  26
BRANCH   9  28
HETATM   28  O2  ***     1      51.832 173.782 165.480  1.00  0.00    -0.395 OA
HETATM   29  H26 ***     1      51.007 173.718 166.008  1.00  0.00     0.210 HD
ENDBRANCH   9  28
TORSDOF 5
ENDMDL
MODEL 3
REMARK VINA RESULT:      -7.5     12.035     15.141
REMARK  5 active torsions:
REMARK  status: ('A' for Active; 'I' for Inactive)
REMARK    1  A    between atoms: C5_10  and  O1_1 
REMARK    2  A    between atoms: C8_13  and  O2_2 
REMARK    3  A    between atoms: C21_26  and  O4_4 
REMARK    4  A    between atoms: C17_22  and  C5_10 
REMARK    5  A    between atoms: C17_22  and  C21_26 
ROOT
HETATM    1  O5  ***     1      46.407 169.748 164.315  1.00  0.00    -0.293 OA
HETATM    2  C1  ***     1      50.608 176.625 166.745  1.00  0.00     0.001 C 
HETATM    3  C2  ***     1      49.867 175.536 167.592  1.00  0.00     0.002 C 
HETATM    4  C3  ***     1      48.529 175.033 166.956  1.00  0.00    -0.002 C 
HETATM    5  C4  ***     1      48.832 174.368 165.558  1.00  0.00     0.031 C 
HETATM    6  C5  ***     1      51.817 176.996 167.711  1.00  0.00     0.128 C 
HETATM    7  C6  ***     1      50.972 175.916 165.386  1.00  0.00     0.045 C 
HETATM    8  C7  ***     1      47.540 173.714 164.877  1.00  0.00    -0.014 C 
HETATM    9  C8  ***     1      49.748 175.277 164.642  1.00  0.00     0.124 C 
HETATM   10  C9  ***     1      49.838 176.122 169.012  1.00  0.00     0.009 C 
HETATM   11  C10 ***     1      51.250 176.726 169.159  1.00  0.00     0.047 C 
HETATM   12  C11 ***     1      47.787 174.031 167.888  1.00  0.00     0.010 C 
HETATM   13  C12 ***     1      49.732 177.909 166.460  1.00  0.00     0.019 C 
HETATM   14  C13 ***     1      46.819 172.875 165.893  1.00  0.00    -0.068 C 
HETATM   15  C14 ***     1      46.524 173.460 167.210  1.00  0.00     0.035 C 
HETATM   16  C15 ***     1      48.007 172.831 163.646  1.00  0.00     0.022 C 
HETATM   17  C16 ***     1      46.516 174.787 164.354  1.00  0.00     0.020 C 
HETATM   18  C18 ***     1      46.956 171.774 163.223  1.00  0.00     0.084 C 
HETATM   19  C19 ***     1      46.411 171.609 165.636  1.00  0.00     0.053 C 
HETATM   20  C20 ***     1      46.576 170.986 164.411  1.00  0.00     0.149 C 
ENDROOT
BRANCH   6  21
HETATM   21  C17 ***     1      52.406 178.379 167.556  1.00  0.00     0.184 C 
HETATM   22  O3  ***     1      53.095 178.658 166.544  1.00  0.00    -0.292 OA
BRANCH  21  23
HETATM   23  C21 ***     1      52.264 179.475 168.543  1.00  0.00     0.245 C 
BRANCH  23  24
HETATM   24  O4  ***     1      53.546 179.903 168.979  1.00  0.00    -0.393 OA
HETATM   25  H30 ***     1      53.436 180.851 169.209  1.00  0.00     0.209 HD
ENDBRANCH  23  24
ENDBRANCH  21  23
ENDBRANCH   6  21
BRANCH   6  26
HETATM   26  O1  ***     1      52.896 176.059 167.555  1.00  0.00    -0.381 OA
HETATM   27  H23 ***     1      53.683 176.466 167.973  1.00  0.00     0.211 HD
ENDBRANCH   6  26
BRANCH   9  28
HETATM   28  O2  ***     1      49.022 176.300 163.965  1.00  0.00    -0.395 OA
HETATM   29  H26 ***     1      49.419 177.147 164.261  1.00  0.00     0.210 HD
ENDBRANCH   9  28
TORSDOF 5
ENDMDL
MODEL 4
REMARK VINA RESULT:      -7.2      1.964      7.617
REMARK  5 active torsions:
REMARK  status: ('A' for Active; 'I' for Inactive)
REMARK    1  A    between atoms: C5_10  and  O1_1 
REMARK    2  A    between atoms: C8_13  and  O2_2 
REMARK    3  A    between atoms: C21_26  and  O4_4 
REMARK    4  A    between atoms: C17_22  and  C5_10 
REMARK    5  A    between atoms: C17_22  and  C21_26 
ROOT
HETATM    1  O5  ***     1      44.265 173.176 182.149  1.00  0.00    -0.293 OA
HETATM    2  C1  ***     1      48.183 178.946 177.437  1.00  0.00     0.001 C 
HETATM    3  C2  ***     1      48.179 177.383 177.333  1.00  0.00     0.002 C 
HETATM    4  C3  ***     1      48.207 176.650 178.714  1.00  0.00    -0.002 C 
HETATM    5  C4  ***     1      46.920 177.037 179.539  1.00  0.00     0.031 C 
HETATM    6  C5  ***     1      48.280 179.356 175.903  1.00  0.00     0.128 C 
HETATM    7  C6  ***     1      46.851 179.315 178.192  1.00  0.00     0.045 C 
HETATM    8  C7  ***     1      46.795 176.246 180.924  1.00  0.00    -0.014 C 
HETATM    9  C8  ***     1      46.673 178.601 179.577  1.00  0.00     0.124 C 
HETATM   10  C9  ***     1      49.279 177.072 176.306  1.00  0.00     0.009 C 
HETATM   11  C10 ***     1      49.054 178.156 175.231  1.00  0.00     0.047 C 
HETATM   12  C11 ***     1      48.304 175.106 178.548  1.00  0.00     0.010 C 
HETATM   13  C12 ***     1      49.424 179.522 178.228  1.00  0.00     0.019 C 
HETATM   14  C13 ***     1      47.039 174.785 180.680  1.00  0.00    -0.068 C 
HETATM   15  C14 ***     1      48.227 174.385 179.910  1.00  0.00     0.035 C 
HETATM   16  C15 ***     1      45.344 176.485 181.518  1.00  0.00     0.022 C 
HETATM   17  C16 ***     1      47.849 176.717 181.993  1.00  0.00     0.020 C 
HETATM   18  C18 ***     1      44.927 175.412 182.554  1.00  0.00     0.084 C 
HETATM   19  C19 ***     1      46.218 173.818 181.159  1.00  0.00     0.053 C 
HETATM   20  C20 ***     1      45.113 174.078 181.951  1.00  0.00     0.149 C 
ENDROOT
BRANCH   6  21
HETATM   21  C17 ***     1      48.898 180.701 175.600  1.00  0.00     0.184 C 
HETATM   22  O3  ***     1      50.147 180.817 175.527  1.00  0.00    -0.292 OA
BRANCH  21  23
HETATM   23  C21 ***     1      48.136 181.957 175.402  1.00  0.00     0.245 C 
BRANCH  23  24
HETATM   24  O4  ***     1      47.915 182.175 174.016  1.00  0.00    -0.393 OA
HETATM   25  H30 ***     1      47.174 181.577 173.777  1.00  0.00     0.209 HD
ENDBRANCH  23  24
ENDBRANCH  21  23
ENDBRANCH   6  21
BRANCH   6  26
HETATM   26  O1  ***     1      46.979 179.344 175.292  1.00  0.00    -0.381 OA
HETATM   27  H23 ***     1      47.081 179.753 174.408  1.00  0.00     0.211 HD
ENDBRANCH   6  26
BRANCH   9  28
HETATM   28  O2  ***     1      47.466 179.268 180.557  1.00  0.00    -0.395 OA
HETATM   29  H26 ***     1      47.209 180.214 180.505  1.00  0.00     0.210 HD
ENDBRANCH   9  28
TORSDOF 5
ENDMDL
MODEL 5
REMARK VINA RESULT:      -7.2     15.320     18.256
REMARK  5 active torsions:
REMARK  status: ('A' for Active; 'I' for Inactive)
REMARK    1  A    between atoms: C5_10  and  O1_1 
REMARK    2  A    between atoms: C8_13  and  O2_2 
REMARK    3  A    between atoms: C21_26  and  O4_4 
REMARK    4  A    between atoms: C17_22  and  C5_10 
REMARK    5  A    between atoms: C17_22  and  C21_26 
ROOT
HETATM    1  O5  ***     1      34.331 177.781 182.680  1.00  0.00    -0.293 OA
HETATM    2  C1  ***     1      30.373 171.910 187.232  1.00  0.00     0.001 C 
HETATM    3  C2  ***     1      30.783 173.376 187.602  1.00  0.00     0.002 C 
HETATM    4  C3  ***     1      32.177 173.812 187.040  1.00  0.00    -0.002 C 
HETATM    5  C4  ***     1      32.148 173.750 185.464  1.00  0.00     0.031 C 
HETATM    6  C5  ***     1      29.014 171.757 188.044  1.00  0.00     0.128 C 
HETATM    7  C6  ***     1      30.272 171.892 185.660  1.00  0.00     0.045 C 
HETATM    8  C7  ***     1      33.493 174.290 184.787  1.00  0.00    -0.014 C 
HETATM    9  C8  ***     1      31.569 172.379 184.923  1.00  0.00     0.124 C 
HETATM   10  C9  ***     1      30.534 173.464 189.116  1.00  0.00     0.009 C 
HETATM   11  C10 ***     1      29.193 172.719 189.282  1.00  0.00     0.047 C 
HETATM   12  C11 ***     1      32.576 175.236 187.523  1.00  0.00     0.010 C 
HETATM   13  C12 ***     1      31.414 170.823 187.714  1.00  0.00     0.019 C 
HETATM   14  C13 ***     1      33.868 175.602 185.414  1.00  0.00    -0.068 C 
HETATM   15  C14 ***     1      33.900 175.699 186.882  1.00  0.00     0.035 C 
HETATM   16  C15 ***     1      33.245 174.460 183.230  1.00  0.00     0.022 C 
HETATM   17  C16 ***     1      34.713 173.316 184.989  1.00  0.00     0.020 C 
HETATM   18  C18 ***     1      34.257 175.419 182.555  1.00  0.00     0.084 C 
HETATM   19  C19 ***     1      34.199 176.693 184.682  1.00  0.00     0.053 C 
HETATM   20  C20 ***     1      34.267 176.693 183.300  1.00  0.00     0.149 C 
ENDROOT
BRANCH   6  21
HETATM   21  C17 ***     1      28.617 170.354 188.439  1.00  0.00     0.184 C 
HETATM   22  O3  ***     1      28.605 170.021 189.650  1.00  0.00    -0.292 OA
BRANCH  21  23
HETATM   23  C21 ***     1      28.252 169.278 187.486  1.00  0.00     0.245 C 
BRANCH  23  24
HETATM   24  O4  ***     1      27.048 169.618 186.812  1.00  0.00    -0.393 OA
HETATM   25  H30 ***     1      26.837 170.530 187.106  1.00  0.00     0.209 HD
ENDBRANCH  23  24
ENDBRANCH  21  23
ENDBRANCH   6  21
BRANCH   6  26
HETATM   26  O1  ***     1      27.915 172.312 187.301  1.00  0.00    -0.381 OA
HETATM   27  H23 ***     1      27.189 171.656 187.344  1.00  0.00     0.211 HD
ENDBRANCH   6  26
BRANCH   9  28
HETATM   28  O2  ***     1      32.531 171.328 184.918  1.00  0.00    -0.395 OA
HETATM   29  H26 ***     1      32.084 170.558 185.331  1.00  0.00     0.210 HD
ENDBRANCH   9  28
TORSDOF 5
ENDMDL
MODEL 6
REMARK VINA RESULT:      -7.1     62.671     66.502
REMARK  5 active torsions:
REMARK  status: ('A' for Active; 'I' for Inactive)
REMARK    1  A    between atoms: C5_10  and  O1_1 
REMARK    2  A    between atoms: C8_13  and  O2_2 
REMARK    3  A    between atoms: C21_26  and  O4_4 
REMARK    4  A    between atoms: C17_22  and  C5_10 
REMARK    5  A    between atoms: C17_22  and  C21_26 
ROOT
HETATM    1  O5  ***     1      46.081 186.442 118.600  1.00  0.00    -0.293 OA
HETATM    2  C1  ***     1      39.636 190.030 114.546  1.00  0.00     0.001 C 
HETATM    3  C2  ***     1      40.613 188.892 114.093  1.00  0.00     0.002 C 
HETATM    4  C3  ***     1      42.096 189.105 114.547  1.00  0.00    -0.002 C 
HETATM    5  C4  ***     1      42.161 189.136 116.122  1.00  0.00     0.031 C 
HETATM    6  C5  ***     1      38.288 189.580 113.830  1.00  0.00     0.128 C 
HETATM    7  C6  ***     1      39.655 189.990 116.121  1.00  0.00     0.045 C 
HETATM    8  C7  ***     1      43.654 189.233 116.690  1.00  0.00    -0.014 C 
HETATM    9  C8  ***     1      41.086 190.112 116.753  1.00  0.00     0.124 C 
HETATM   10  C9  ***     1      40.315 188.715 112.596  1.00  0.00     0.009 C 
HETATM   11  C10 ***     1      38.775 188.802 112.546  1.00  0.00     0.047 C 
HETATM   12  C11 ***     1      43.036 188.001 113.984  1.00  0.00     0.010 C 
HETATM   13  C12 ***     1      40.061 191.465 114.042  1.00  0.00     0.019 C 
HETATM   14  C13 ***     1      44.513 188.220 115.989  1.00  0.00    -0.068 C 
HETATM   15  C14 ***     1      44.475 188.157 114.520  1.00  0.00     0.035 C 
HETATM   16  C15 ***     1      43.622 188.960 118.252  1.00  0.00     0.022 C 
HETATM   17  C16 ***     1      44.310 190.642 116.449  1.00  0.00     0.020 C 
HETATM   18  C18 ***     1      44.998 188.533 118.823  1.00  0.00     0.084 C 
HETATM   19  C19 ***     1      45.339 187.377 116.656  1.00  0.00     0.053 C 
HETATM   20  C20 ***     1      45.504 187.397 118.029  1.00  0.00     0.149 C 
ENDROOT
BRANCH   6  21
HETATM   21  C17 ***     1      37.292 190.672 113.517  1.00  0.00     0.184 C 
HETATM   22  O3  ***     1      37.153 191.075 112.336  1.00  0.00    -0.292 OA
BRANCH  21  23
HETATM   23  C21 ***     1      36.449 191.362 114.522  1.00  0.00     0.245 C 
BRANCH  23  24
HETATM   24  O4  ***     1      35.294 190.583 114.800  1.00  0.00    -0.393 OA
HETATM   25  H30 ***     1      35.070 190.781 115.735  1.00  0.00     0.209 HD
ENDBRANCH  23  24
ENDBRANCH  21  23
ENDBRANCH   6  21
BRANCH   6  26
HETATM   26  O1  ***     1      37.600 188.595 114.619  1.00  0.00    -0.381 OA
HETATM   27  H23 ***     1      38.024 187.734 114.424  1.00  0.00     0.211 HD
ENDBRANCH   6  26
BRANCH   9  28
HETATM   28  O2  ***     1      41.493 191.478 116.738  1.00  0.00    -0.395 OA
HETATM   29  H26 ***     1      42.371 191.498 117.175  1.00  0.00     0.210 HD
ENDBRANCH   9  28
TORSDOF 5
ENDMDL
MODEL 7
REMARK VINA RESULT:      -6.9     18.167     22.298
REMARK  5 active torsions:
REMARK  status: ('A' for Active; 'I' for Inactive)
REMARK    1  A    between atoms: C5_10  and  O1_1 
REMARK    2  A    between atoms: C8_13  and  O2_2 
REMARK    3  A    between atoms: C21_26  and  O4_4 
REMARK    4  A    between atoms: C17_22  and  C5_10 
REMARK    5  A    between atoms: C17_22  and  C21_26 
ROOT
HETATM    1  O5  ***     1      35.999 177.088 203.968  1.00  0.00    -0.293 OA
HETATM    2  C1  ***     1      37.295 173.178 196.628  1.00  0.00     0.001 C 
HETATM    3  C2  ***     1      37.880 174.522 197.179  1.00  0.00     0.002 C 
HETATM    4  C3  ***     1      36.854 175.383 197.988  1.00  0.00    -0.002 C 
HETATM    5  C4  ***     1      36.366 174.569 199.248  1.00  0.00     0.031 C 
HETATM    6  C5  ***     1      38.523 172.634 195.775  1.00  0.00     0.128 C 
HETATM    7  C6  ***     1      36.888 172.348 197.904  1.00  0.00     0.045 C 
HETATM    8  C7  ***     1      35.400 175.409 200.207  1.00  0.00    -0.014 C 
HETATM    9  C8  ***     1      35.913 173.097 198.879  1.00  0.00     0.124 C 
HETATM   10  C9  ***     1      38.582 175.151 195.965  1.00  0.00     0.009 C 
HETATM   11  C10 ***     1      39.278 173.940 195.312  1.00  0.00     0.047 C 
HETATM   12  C11 ***     1      37.460 176.748 198.422  1.00  0.00     0.010 C 
HETATM   13  C12 ***     1      36.035 173.374 195.694  1.00  0.00     0.019 C 
HETATM   14  C13 ***     1      36.008 176.760 200.457  1.00  0.00    -0.068 C 
HETATM   15  C14 ***     1      36.479 177.546 199.306  1.00  0.00     0.035 C 
HETATM   16  C15 ***     1      35.215 174.614 201.566  1.00  0.00     0.022 C 
HETATM   17  C16 ***     1      33.977 175.652 199.580  1.00  0.00     0.020 C 
HETATM   18  C18 ***     1      34.738 175.511 202.736  1.00  0.00     0.084 C 
HETATM   19  C19 ***     1      36.119 177.291 201.699  1.00  0.00     0.053 C 
HETATM   20  C20 ***     1      35.647 176.669 202.841  1.00  0.00     0.149 C 
ENDROOT
BRANCH   6  21
HETATM   21  C17 ***     1      38.192 171.705 194.631  1.00  0.00     0.184 C 
HETATM   22  O3  ***     1      37.668 170.587 194.860  1.00  0.00    -0.292 OA
BRANCH  21  23
HETATM   23  C21 ***     1      38.468 171.991 193.202  1.00  0.00     0.245 C 
BRANCH  23  24
HETATM   24  O4  ***     1      39.733 171.457 192.838  1.00  0.00    -0.393 OA
HETATM   25  H30 ***     1      40.141 172.136 192.259  1.00  0.00     0.209 HD
ENDBRANCH  23  24
ENDBRANCH  21  23
ENDBRANCH   6  21
BRANCH   6  26
HETATM   26  O1  ***     1      39.460 171.945 196.620  1.00  0.00    -0.381 OA
HETATM   27  H23 ***     1      39.703 171.119 196.152  1.00  0.00     0.211 HD
ENDBRANCH   6  26
BRANCH   9  28
HETATM   28  O2  ***     1      34.587 173.033 198.360  1.00  0.00    -0.395 OA
HETATM   29  H26 ***     1      34.528 173.753 197.696  1.00  0.00     0.210 HD
ENDBRANCH   9  28
TORSDOF 5
ENDMDL
MODEL 8
REMARK VINA RESULT:      -6.9     61.446     63.920
REMARK  5 active torsions:
REMARK  status: ('A' for Active; 'I' for Inactive)
REMARK    1  A    between atoms: C5_10  and  O1_1 
REMARK    2  A    between atoms: C8_13  and  O2_2 
REMARK    3  A    between atoms: C21_26  and  O4_4 
REMARK    4  A    between atoms: C17_22  and  C5_10 
REMARK    5  A    between atoms: C17_22  and  C21_26 
ROOT
HETATM    1  O5  ***     1       1.358 185.923 134.654  1.00  0.00    -0.293 OA
HETATM    2  C1  ***     1       9.129 186.122 131.424  1.00  0.00     0.001 C 
HETATM    3  C2  ***     1       8.621 186.450 132.869  1.00  0.00     0.002 C 
HETATM    4  C3  ***     1       7.251 187.204 132.911  1.00  0.00    -0.002 C 
HETATM    5  C4  ***     1       6.138 186.303 132.250  1.00  0.00     0.031 C 
HETATM    6  C5  ***     1      10.557 185.495 131.734  1.00  0.00     0.128 C 
HETATM    7  C6  ***     1       8.043 185.157 130.813  1.00  0.00     0.045 C 
HETATM    8  C7  ***     1       4.672 186.937 132.348  1.00  0.00    -0.014 C 
HETATM    9  C8  ***     1       6.581 185.726 130.844  1.00  0.00     0.124 C 
HETATM   10  C9  ***     1       9.838 187.086 133.558  1.00  0.00     0.009 C 
HETATM   11  C10 ***     1      11.004 186.198 133.075  1.00  0.00     0.047 C 
HETATM   12  C11 ***     1       6.848 187.592 134.362  1.00  0.00     0.010 C 
HETATM   13  C12 ***     1       9.288 187.398 130.506  1.00  0.00     0.019 C 
HETATM   14  C13 ***     1       4.431 187.403 133.755  1.00  0.00    -0.068 C 
HETATM   15  C14 ***     1       5.449 188.241 134.406  1.00  0.00     0.035 C 
HETATM   16  C15 ***     1       3.612 185.834 131.930  1.00  0.00     0.022 C 
HETATM   17  C16 ***     1       4.482 188.185 131.409  1.00  0.00     0.020 C 
HETATM   18  C18 ***     1       2.184 186.137 132.447  1.00  0.00     0.084 C 
HETATM   19  C19 ***     1       3.301 187.101 134.440  1.00  0.00     0.053 C 
HETATM   20  C20 ***     1       2.251 186.378 133.901  1.00  0.00     0.149 C 
ENDROOT
BRANCH   6  21
HETATM   21  C17 ***     1      11.593 185.599 130.639  1.00  0.00     0.184 C 
HETATM   22  O3  ***     1      11.536 184.834 129.645  1.00  0.00    -0.292 OA
BRANCH  21  23
HETATM   23  C21 ***     1      12.737 186.542 130.644  1.00  0.00     0.245 C 
BRANCH  23  24
HETATM   24  O4  ***     1      13.954 185.825 130.795  1.00  0.00    -0.393 OA
HETATM   25  H30 ***     1      13.688 184.922 131.072  1.00  0.00     0.209 HD
ENDBRANCH  23  24
ENDBRANCH  21  23
ENDBRANCH   6  21
BRANCH   6  26
HETATM   26  O1  ***     1      10.437 184.102 132.070  1.00  0.00    -0.381 OA
HETATM   27  H23 ***     1       9.518 183.841 131.854  1.00  0.00     0.211 HD
ENDBRANCH   6  26
BRANCH   9  28
HETATM   28  O2  ***     1       6.416 186.660 129.779  1.00  0.00    -0.395 OA
HETATM   29  H26 ***     1       5.467 186.615 129.533  1.00  0.00     0.210 HD
ENDBRANCH   9  28
TORSDOF 5
ENDMDL
MODEL 9
REMARK VINA RESULT:      -6.9     20.711     22.712
REMARK  5 active torsions:
REMARK  status: ('A' for Active; 'I' for Inactive)
REMARK    1  A    between atoms: C5_10  and  O1_1 
REMARK    2  A    between atoms: C8_13  and  O2_2 
REMARK    3  A    between atoms: C21_26  and  O4_4 
REMARK    4  A    between atoms: C17_22  and  C5_10 
REMARK    5  A    between atoms: C17_22  and  C21_26 
ROOT
HETATM    1  O5  ***     1      32.732 164.196 193.193  1.00  0.00    -0.293 OA
HETATM    2  C1  ***     1      28.844 170.218 188.779  1.00  0.00     0.001 C 
HETATM    3  C2  ***     1      29.359 168.806 188.336  1.00  0.00     0.002 C 
HETATM    4  C3  ***     1      30.725 168.393 188.978  1.00  0.00    -0.002 C 
HETATM    5  C4  ***     1      30.568 168.329 190.546  1.00  0.00     0.031 C 
HETATM    6  C5  ***     1      27.547 170.371 187.871  1.00  0.00     0.128 C 
HETATM    7  C6  ***     1      28.617 170.107 190.334  1.00  0.00     0.045 C 
HETATM    8  C7  ***     1      31.881 167.800 191.291  1.00  0.00    -0.014 C 
HETATM    9  C8  ***     1      29.875 169.624 191.138  1.00  0.00     0.124 C 
HETATM   10  C9  ***     1      29.236 168.826 186.805  1.00  0.00     0.009 C 
HETATM   11  C10 ***     1      27.875 169.519 186.583  1.00  0.00     0.047 C 
HETATM   12  C11 ***     1      31.235 167.031 188.425  1.00  0.00     0.010 C 
HETATM   13  C12 ***     1      29.861 171.387 188.469  1.00  0.00     0.019 C 
HETATM   14  C13 ***     1      32.373 166.561 190.600  1.00  0.00    -0.068 C 
HETATM   15  C14 ***     1      32.527 166.581 189.138  1.00  0.00     0.035 C 
HETATM   16  C15 ***     1      31.519 167.496 192.805  1.00  0.00     0.022 C 
HETATM   17  C16 ***     1      33.060 168.842 191.265  1.00  0.00     0.020 C 
HETATM   18  C18 ***     1      32.524 166.535 193.488  1.00  0.00     0.084 C 
HETATM   19  C19 ***     1      32.702 165.432 191.274  1.00  0.00     0.053 C 
HETATM   20  C20 ***     1      32.660 165.325 192.653  1.00  0.00     0.149 C 
ENDROOT
BRANCH   6  21
HETATM   21  C17 ***     1      27.109 171.781 187.550  1.00  0.00     0.184 C 
HETATM   22  O3  ***     1      27.521 172.345 186.507  1.00  0.00    -0.292 OA
BRANCH  21  23
HETATM   23  C21 ***     1      26.223 172.607 188.405  1.00  0.00     0.245 C 
BRANCH  23  24
HETATM   24  O4  ***     1      25.016 172.894 187.714  1.00  0.00    -0.393 OA
HETATM   25  H30 ***     1      24.301 172.548 188.291  1.00  0.00     0.209 HD
ENDBRANCH  23  24
ENDBRANCH  21  23
ENDBRANCH   6  21
BRANCH   6  26
HETATM   26  O1  ***     1      26.424 169.708 188.476  1.00  0.00    -0.381 OA
HETATM   27  H23 ***     1      26.665 168.762 188.552  1.00  0.00     0.211 HD
ENDBRANCH   6  26
BRANCH   9  28
HETATM   28  O2  ***     1      30.777 170.715 191.302  1.00  0.00    -0.395 OA
HETATM   29  H26 ***     1      31.344 170.477 192.067  1.00  0.00     0.210 HD
ENDBRANCH   9  28
TORSDOF 5
ENDMDL
MODEL 10
REMARK VINA RESULT:      -6.8     53.972     55.604
REMARK  5 active torsions:
REMARK  status: ('A' for Active; 'I' for Inactive)
REMARK    1  A    between atoms: C5_10  and  O1_1 
REMARK    2  A    between atoms: C8_13  and  O2_2 
REMARK    3  A    between atoms: C21_26  and  O4_4 
REMARK    4  A    between atoms: C17_22  and  C5_10 
REMARK    5  A    between atoms: C17_22  and  C21_26 
ROOT
HETATM    1  O5  ***     1      53.995 173.473 127.106  1.00  0.00    -0.293 OA
HETATM    2  C1  ***     1      46.450 175.612 124.049  1.00  0.00     0.001 C 
HETATM    3  C2  ***     1      46.933 174.282 124.720  1.00  0.00     0.002 C 
HETATM    4  C3  ***     1      48.383 173.853 124.318  1.00  0.00    -0.002 C 
HETATM    5  C4  ***     1      49.403 174.968 124.772  1.00  0.00     0.031 C 
HETATM    6  C5  ***     1      44.942 175.681 124.554  1.00  0.00     0.128 C 
HETATM    7  C6  ***     1      47.432 176.724 124.580  1.00  0.00     0.045 C 
HETATM    8  C7  ***     1      50.930 174.570 124.511  1.00  0.00    -0.014 C 
HETATM    9  C8  ***     1      48.950 176.419 124.329  1.00  0.00     0.124 C 
HETATM   10  C9  ***     1      45.777 173.299 124.480  1.00  0.00     0.009 C 
HETATM   11  C10 ***     1      44.532 174.170 124.748  1.00  0.00     0.047 C 
HETATM   12  C11 ***     1      48.771 172.477 124.932  1.00  0.00     0.010 C 
HETATM   13  C12 ***     1      46.488 175.574 122.470  1.00  0.00     0.019 C 
HETATM   14  C13 ***     1      51.169 173.176 125.016  1.00  0.00    -0.068 C 
HETATM   15  C14 ***     1      50.236 172.111 124.618  1.00  0.00     0.035 C 
HETATM   16  C15 ***     1      51.862 175.610 125.263  1.00  0.00     0.022 C 
HETATM   17  C16 ***     1      51.312 174.580 122.985  1.00  0.00     0.020 C 
HETATM   18  C18 ***     1      53.295 175.074 125.511  1.00  0.00     0.084 C 
HETATM   19  C19 ***     1      52.223 172.857 125.806  1.00  0.00     0.053 C 
HETATM   20  C20 ***     1      53.197 173.765 126.184  1.00  0.00     0.149 C 
ENDROOT
BRANCH   6  21
HETATM   21  C17 ***     1      43.974 176.450 123.687  1.00  0.00     0.184 C 
HETATM   22  O3  ***     1      43.065 175.843 123.069  1.00  0.00    -0.292 OA
BRANCH  21  23
HETATM   23  C21 ***     1      44.016 177.915 123.466  1.00  0.00     0.245 C 
BRANCH  23  24
HETATM   24  O4  ***     1      43.767 178.596 124.688  1.00  0.00    -0.393 OA
HETATM   25  H30 ***     1      42.916 179.065 124.552  1.00  0.00     0.209 HD
ENDBRANCH  23  24
ENDBRANCH  21  23
ENDBRANCH   6  21
BRANCH   6  26
HETATM   26  O1  ***     1      44.875 176.253 125.871  1.00  0.00    -0.381 OA
HETATM   27  H23 ***     1      45.585 176.927 125.920  1.00  0.00     0.211 HD
ENDBRANCH   6  26
BRANCH   9  28
HETATM   28  O2  ***     1      49.273 176.717 122.973  1.00  0.00    -0.395 OA
HETATM   29  H26 ***     1      48.943 175.955 122.450  1.00  0.00     0.210 HD
ENDBRANCH   9  28
TORSDOF 5
ENDMDL
