REMARK  2 active torsions:
REMARK  status: ('A' for Active; 'I' for Inactive)
REMARK    1  A    between atoms: C2_2  and  C5_5 
REMARK    2  A    between atoms: C7_7  and  N1_13 
ROOT
ATOM      1  C1  UNK     1     189.977 282.584 122.757  1.00  0.00    -0.041 A 
ATOM      2  C2  UNK     1     190.942 282.367 123.923  1.00  0.00     0.052 C 
ATOM      3  C3  UNK     1     188.649 282.663 122.939  1.00  0.00    -0.021 A 
ATOM      4  C4  UNK     1     190.487 282.712 121.530  1.00  0.00     0.008 A 
ATOM      5  C6  UNK     1     190.330 282.767 125.278  1.00  0.00     0.016 C 
ATOM      6  C7  UNK     1     188.013 282.552 124.331  1.00  0.00     0.218 C 
ATOM      7  C8  UNK     1     187.863 282.903 121.884  1.00  0.00     0.010 A 
ATOM      8  C9  UNK     1     189.691 282.922 120.487  1.00  0.00     0.001 A 
ATOM      9  C12 UNK     1     188.972 282.083 125.443  1.00  0.00     0.039 C 
ATOM     10  C13 UNK     1     188.380 283.020 120.665  1.00  0.00     0.001 A 
ENDROOT
BRANCH   2  11
ATOM     11  C5  UNK     1     191.512 280.943 123.942  1.00  0.00    -0.048 A 
ATOM     12  C10 UNK     1     190.861 279.903 123.413  1.00  0.00     0.033 A 
ATOM     13  C14 UNK     1     191.384 278.678 123.442  1.00  0.00     0.056 A 
ATOM     14  C17 UNK     1     192.573 278.480 124.018  1.00  0.00     0.055 A 
ATOM     15 Cl1  UNK     1     190.502 277.378 122.726  1.00  0.00    -0.083 Cl
ATOM     16  C15 UNK     1     193.219 279.514 124.553  1.00  0.00     0.026 A 
ATOM     17 Cl2  UNK     1     193.298 276.914 124.087  1.00  0.00    -0.083 Cl
ATOM     18  C11 UNK     1     192.697 280.735 124.512  1.00  0.00     0.009 A 
ENDBRANCH   2  11
BRANCH   6  19
ATOM     19  N1  UNK     1     186.792 281.662 124.278  1.00  0.00    -0.071 N 
ATOM     20  H12 UNK     1     187.093 280.684 124.160  1.00  0.00     0.277 HD
ATOM     21  H13 UNK     1     186.227 281.931 123.460  1.00  0.00     0.277 HD
ATOM     22  C16 UNK     1     185.928 281.774 125.505  1.00  0.00     0.267 C 
ENDBRANCH   6  19
TORSDOF 2
