@<TRIPOS>MOLECULE
ZINC000000006016
48    49    1     0     0
SMALL
USER_CHARGES
@<TRIPOS>ATOM
1      C1      1.4239    2.0431    0.1523 C.3      1 ZINC000000006016    0.0200
2      O2      1.1200    0.6505    0.0494 O.3      1 ZINC000000006016   -0.3100
3      C3      1.4815   -0.1387    1.0950 C.ar     1 ZINC000000006016    0.1500
4      C4      2.1104    0.4166    2.1999 C.ar     1 ZINC000000006016   -0.2100
5      C5      2.4764   -0.3877    3.2617 C.ar     1 ZINC000000006016   -0.0700
6      C6      2.2168   -1.7453    3.2237 C.ar     1 ZINC000000006016   -0.1700
7      C7      2.6175   -2.6205    4.3832 C.3      1 ZINC000000006016   -0.0400
8      H8      2.9856   -1.9975    5.1984 H        1 ZINC000000006016    0.1100
9      C9      1.4045   -3.4212    4.8609 C.3      1 ZINC000000006016   -0.0100
10     N10     0.3874   -2.5017    5.3880 N.4      1 ZINC000000006016   -0.3900
11     H11     0.1685   -1.8065    4.6902 H        1 ZINC000000006016    0.4300
12     C12    -0.8270   -3.2561    5.7255 C.3      1 ZINC000000006016   -0.0500
13     C13     0.9035   -1.8396    6.5936 C.3      1 ZINC000000006016   -0.0500
14     C14     3.7208   -3.5827    3.9385 C.3      1 ZINC000000006016    0.1500
15     O15     3.2009   -4.4832    2.9583 O.3      1 ZINC000000006016   -0.5600
16     C16     4.8796   -2.7861    3.3354 C.3      1 ZINC000000006016   -0.1400
17     C17     5.9829   -3.7483    2.8907 C.3      1 ZINC000000006016   -0.1300
18     C18     6.4841   -4.5428    4.0983 C.3      1 ZINC000000006016   -0.1300
19     C19     5.3253   -5.3394    4.7014 C.3      1 ZINC000000006016   -0.1200
20     C20     4.2220   -4.3772    5.1461 C.3      1 ZINC000000006016   -0.1500
21     C21     1.5897   -2.3011    2.1239 C.ar     1 ZINC000000006016   -0.0600
22     C22     1.2170   -1.5002    1.0618 C.ar     1 ZINC000000006016   -0.1500
23     H23     2.5009    2.1730    0.2587 H        1 ZINC000000006016    0.0600
24     H24     1.0831    2.5567   -0.7467 H        1 ZINC000000006016    0.1100
25     H25     0.9195    2.4616    1.0232 H        1 ZINC000000006016    0.0600
26     H26     2.3140    1.4768    2.2297 H        1 ZINC000000006016    0.1300
27     H27     2.9660    0.0441    4.1220 H        1 ZINC000000006016    0.1300
28     H28     0.9880   -3.9832    4.0249 H        1 ZINC000000006016    0.1400
29     H29     1.7115   -4.1121    5.6461 H        1 ZINC000000006016    0.1300
30     H30    -0.5905   -4.0070    6.4794 H        1 ZINC000000006016    0.1200
31     H31    -1.5817   -2.5738    6.1166 H        1 ZINC000000006016    0.1200
32     H32    -1.2100   -3.7473    4.8310 H        1 ZINC000000006016    0.1200
33     H33     1.7380   -1.1925    6.3237 H        1 ZINC000000006016    0.1200
34     H34     0.1124   -1.2424    7.0470 H        1 ZINC000000006016    0.1200
35     H35     1.2430   -2.5928    7.3046 H        1 ZINC000000006016    0.1200
36     H36     3.8263   -5.1666    2.6809 H        1 ZINC000000006016    0.3900
37     H37     4.5226   -2.2201    2.4751 H        1 ZINC000000006016    0.0800
38     H38     5.2762   -2.0992    4.0831 H        1 ZINC000000006016    0.0700
39     H39     5.5863   -4.4353    2.1430 H        1 ZINC000000006016    0.0700
40     H40     6.8085   -3.1809    2.4611 H        1 ZINC000000006016    0.0700
41     H41     7.2701   -5.2283    3.7815 H        1 ZINC000000006016    0.0700
42     H42     6.8807   -3.8559    4.8460 H        1 ZINC000000006016    0.0700
43     H43     4.9287   -6.0263    3.9537 H        1 ZINC000000006016    0.0700
44     H44     5.6824   -5.9054    5.5617 H        1 ZINC000000006016    0.0700
45     H45     4.6186   -3.6903    5.8938 H        1 ZINC000000006016    0.0800
46     H46     3.3965   -4.9446    5.5757 H        1 ZINC000000006016    0.0700
47     H47     1.3877   -3.3617    2.0968 H        1 ZINC000000006016    0.1400
48     H48     0.7271   -1.9348    0.2030 H        1 ZINC000000006016    0.1400
@<TRIPOS>BOND
1     1     2     1
2     1     23    1
3     1     24    1
4     1     25    1
5     2     3     1
6     3     22    ar
7     3     4     ar
8     4     5     ar
9     4     26    1
10    5     6     ar
11    5     27    1
12    6     7     1
13    6     21    ar
14    7     8     1
15    7     9     1
16    7     14    1
17    9     10    1
18    9     28    1
19    9     29    1
20    10    11    1
21    10    12    1
22    10    13    1
23    12    30    1
24    12    31    1
25    12    32    1
26    13    33    1
27    13    34    1
28    13    35    1
29    14    20    1
30    14    15    1
31    14    16    1
32    15    36    1
33    16    17    1
34    16    37    1
35    16    38    1
36    17    18    1
37    17    39    1
38    17    40    1
39    18    19    1
40    18    41    1
41    18    42    1
42    19    20    1
43    19    43    1
44    19    44    1
45    20    45    1
46    20    46    1
47    21    22    ar
48    21    47    1
49    22    48    1
@<TRIPOS>SUBSTRUCTURE
1   ZINC000000006016 1     RESIDUE    1   A     ZIN   1
