CT1001360231


 47 48  0  0  0  0  0  0  0  0999 V2000
   -0.0250    1.5244   -0.0609 C   0  0  0  0  0
    0.0021   -0.0041    0.0020 C   0  0  0  0  0
    1.4076    2.0612   -0.0380 C   0  0  0  0  0
   -0.7159    1.9696   -1.3513 C   0  0  0  0  0
   -0.7429    2.0348    1.0643 O   0  0  0  0  0
    0.8168   -0.4436    1.1912 C   0  0  0  0  0
   -1.4266   -0.5342    0.1385 C   0  0  0  0  0
    1.3805    3.5897   -0.1009 C   0  0  0  0  0
   -0.7430    3.4981   -1.4142 C   0  0  0  0  0
    1.9410   -1.2269    1.0061 C   0  0  0  0  0
    0.4420   -0.0580    2.4650 C   0  0  0  0  0
   -2.1729   -0.2542   -1.0954 N   0  0  0  0  0
    0.6896    4.0349   -1.3914 C   0  0  0  0  0
    2.6895   -1.6311    2.0946 C   0  0  0  0  0
    1.1876   -0.4588    3.5567 C   0  0  0  0  0
   -1.6245   -1.0146   -2.2264 C   0  0  0  0  0
   -3.6046   -0.5317   -0.9193 C   0  0  0  0  0
    2.3125   -1.2500    3.3742 C   0  0  0  0  0
    3.0472   -1.6463    4.4466 O   0  0  0  0  0
    2.6000   -1.2165    5.7340 C   0  0  0  0  0
    0.4499   -0.3974   -0.9106 H   0  0  0  0  0
    1.8998    1.7440    0.8813 H   0  0  0  0  0
    1.9552    1.6719   -0.8963 H   0  0  0  0  0
   -0.1683    1.5803   -2.2096 H   0  0  0  0  0
   -1.7365    1.5872   -1.3676 H   0  0  0  0  0
   -0.8002    2.9998    1.0896 H   0  0  0  0  0
   -1.4000   -1.6102    0.3107 H   0  0  0  0  0
   -1.9174   -0.0438    0.9792 H   0  0  0  0  0
    0.8329    3.9790    0.7574 H   0  0  0  0  0
    2.4011    3.9721   -0.0846 H   0  0  0  0  0
   -1.2352    3.8152   -2.3336 H   0  0  0  0  0
   -1.2906    3.8874   -0.5559 H   0  0  0  0  0
    2.2340   -1.5233    0.0098 H   0  0  0  0  0
   -0.4342    0.5573    2.6067 H   0  0  0  0  0
    0.6703    5.1238   -1.4362 H   0  0  0  0  0
    1.2372    3.6455   -2.2496 H   0  0  0  0  0
    3.5671   -2.2436    1.9496 H   0  0  0  0  0
    0.8945   -0.1574    4.5515 H   0  0  0  0  0
   -1.6901   -2.0814   -2.0128 H   0  0  0  0  0
   -2.1953   -0.7886   -3.1270 H   0  0  0  0  0
   -0.5812   -0.7379   -2.3784 H   0  0  0  0  0
   -4.0009    0.0960   -0.1211 H   0  0  0  0  0
   -4.1334   -0.3159   -1.8476 H   0  0  0  0  0
   -3.7419   -1.5810   -0.6583 H   0  0  0  0  0
    3.2736   -1.6011    6.4997 H   0  0  0  0  0
    2.5921   -0.1272    5.7708 H   0  0  0  0  0
    1.5931   -1.5934    5.9133 H   0  0  0  0  0
  1  2  1  0  0  0  0
  1  3  1  0  0  0  0
  1  4  1  0  0  0  0
  1  5  1  0  0  0  0
  2  6  1  0  0  0  0
  2  7  1  0  0  0  0
  2 21  1  0  0  0  0
  3  8  1  0  0  0  0
  3 22  1  0  0  0  0
  3 23  1  0  0  0  0
  4  9  1  0  0  0  0
  4 24  1  0  0  0  0
  4 25  1  0  0  0  0
  5 26  1  0  0  0  0
  6 10  1  0  0  0  0
  6 11  2  0  0  0  0
  7 12  1  0  0  0  0
  7 27  1  0  0  0  0
  7 28  1  0  0  0  0
  8 13  1  0  0  0  0
  8 29  1  0  0  0  0
  8 30  1  0  0  0  0
  9 13  1  0  0  0  0
  9 31  1  0  0  0  0
  9 32  1  0  0  0  0
 10 14  2  0  0  0  0
 10 33  1  0  0  0  0
 11 15  1  0  0  0  0
 11 34  1  0  0  0  0
 12 16  1  0  0  0  0
 12 17  1  0  0  0  0
 13 35  1  0  0  0  0
 13 36  1  0  0  0  0
 14 18  1  0  0  0  0
 14 37  1  0  0  0  0
 15 18  2  0  0  0  0
 15 38  1  0  0  0  0
 16 39  1  0  0  0  0
 16 40  1  0  0  0  0
 16 41  1  0  0  0  0
 17 42  1  0  0  0  0
 17 43  1  0  0  0  0
 17 44  1  0  0  0  0
 18 19  1  0  0  0  0
 19 20  1  0  0  0  0
 20 45  1  0  0  0  0
 20 46  1  0  0  0  0
 20 47  1  0  0  0  0
M  END
$$$$
