MODEL 1
REMARK VINA RESULT:      -7.6      0.000      0.000
REMARK  6 active torsions:
REMARK  status: ('A' for Active; 'I' for Inactive)
REMARK    1  A    between atoms: O2_2  and  C3_3 
REMARK    2  A    between atoms: C6_6  and  C7_7 
REMARK    3  A    between atoms: C7_7  and  C9_8 
REMARK    4  A    between atoms: C7_7  and  C14_13 
REMARK    5  A    between atoms: C9_8  and  N10_9 
REMARK    6  A    between atoms: C14_13  and  O15_14 
ROOT
ATOM      1  C7  ZIN AC000      35.687 183.998 141.051  0.00  0.00     0.079 C 
ENDROOT
BRANCH   1   2
ATOM      2  C6  ZIN AC000      34.663 184.557 142.005  0.00  0.00    -0.049 A 
ATOM      3  C5  ZIN AC000      34.217 183.790 143.064  0.00  0.00     0.010 A 
ATOM      4  C4  ZIN AC000      33.278 184.300 143.941  0.00  0.00     0.037 A 
ATOM      5  C3  ZIN AC000      32.785 185.583 143.757  0.00  0.00     0.068 A 
ATOM      6  C22 ZIN AC000      33.229 186.348 142.689  0.00  0.00     0.037 A 
ATOM      7  C21 ZIN AC000      34.171 185.836 141.818  0.00  0.00     0.010 A 
BRANCH   5   8
ATOM      8  O2  ZIN AC000      31.861 186.087 144.617  0.00  0.00    -0.356 OA
ATOM      9  C1  ZIN AC000      31.090 185.145 145.366  0.00  0.00     0.210 C 
ENDBRANCH   5   8
ENDBRANCH   1   2
BRANCH   1  10
ATOM     10  C9  ZIN AC000      36.791 183.295 141.843  0.00  0.00     0.246 C 
BRANCH  10  11
ATOM     11  N10 ZIN AC000      37.726 184.295 142.376  0.00  0.00    -0.078 N 
ATOM     12  H11 ZIN AC000      37.377 185.220 142.176  0.00  0.00     0.279 HD
ATOM     13  C12 ZIN AC000      37.853 184.122 143.829  0.00  0.00     0.269 C 
ATOM     14  C13 ZIN AC000      39.042 184.120 141.746  0.00  0.00     0.269 C 
ENDBRANCH  10  11
ENDBRANCH   1  10
BRANCH   1  15
ATOM     15  C14 ZIN AC000      35.015 182.995 140.111  0.00  0.00     0.067 C 
ATOM     16  C20 ZIN AC000      33.499 183.194 140.152  0.00  0.00     0.038 C 
ATOM     17  C19 ZIN AC000      32.828 182.190 139.213  0.00  0.00     0.003 C 
ATOM     18  C18 ZIN AC000      33.167 180.767 139.661  0.00  0.00     0.000 C 
ATOM     19  C17 ZIN AC000      34.683 180.568 139.621  0.00  0.00     0.003 C 
ATOM     20  C16 ZIN AC000      35.355 181.571 140.560  0.00  0.00     0.038 C 
BRANCH  15  21
ATOM     21  O15 ZIN AC000      35.488 183.200 138.779  0.00  0.00    -0.389 OA
ATOM     22  H36 ZIN AC000      34.826 183.570 138.179  0.00  0.00     0.210 HD
ENDBRANCH  15  21
ENDBRANCH   1  15
TORSDOF 6
ENDMDL
MODEL 2
REMARK VINA RESULT:      -7.3      2.440      4.102
REMARK  6 active torsions:
REMARK  status: ('A' for Active; 'I' for Inactive)
REMARK    1  A    between atoms: O2_2  and  C3_3 
REMARK    2  A    between atoms: C6_6  and  C7_7 
REMARK    3  A    between atoms: C7_7  and  C9_8 
REMARK    4  A    between atoms: C7_7  and  C14_13 
REMARK    5  A    between atoms: C9_8  and  N10_9 
REMARK    6  A    between atoms: C14_13  and  O15_14 
ROOT
ATOM      1  C7  ZIN AC000      33.542 183.893 141.829  0.00  0.00     0.079 C 
ENDROOT
BRANCH   1   2
ATOM      2  C6  ZIN AC000      34.710 183.574 142.726  0.00  0.00    -0.049 A 
ATOM      3  C5  ZIN AC000      34.664 182.464 143.549  0.00  0.00     0.010 A 
ATOM      4  C4  ZIN AC000      35.734 182.168 144.372  0.00  0.00     0.037 A 
ATOM      5  C3  ZIN AC000      36.854 182.987 144.371  0.00  0.00     0.068 A 
ATOM      6  C22 ZIN AC000      36.895 184.103 143.550  0.00  0.00     0.037 A 
ATOM      7  C21 ZIN AC000      35.825 184.391 142.725  0.00  0.00     0.010 A 
BRANCH   5   8
ATOM      8  O2  ZIN AC000      37.908 182.699 145.180  0.00  0.00    -0.356 OA
ATOM      9  C1  ZIN AC000      38.410 183.762 145.994  0.00  0.00     0.210 C 
ENDBRANCH   5   8
ENDBRANCH   1   2
BRANCH   1  10
ATOM     10  C9  ZIN AC000      33.327 185.408 141.792  0.00  0.00     0.246 C 
BRANCH  10  11
ATOM     11  N10 ZIN AC000      32.122 185.751 142.560  0.00  0.00    -0.078 N 
ATOM     12  H11 ZIN AC000      31.763 186.639 142.242  0.00  0.00     0.279 HD
ATOM     13  C12 ZIN AC000      31.103 184.712 142.364  0.00  0.00     0.269 C 
ATOM     14  C13 ZIN AC000      32.460 185.841 143.987  0.00  0.00     0.269 C 
ENDBRANCH  10  11
ENDBRANCH   1  10
BRANCH   1  15
ATOM     15  C14 ZIN AC000      33.831 183.385 140.415  0.00  0.00     0.067 C 
ATOM     16  C20 ZIN AC000      32.673 182.502 139.945  0.00  0.00     0.038 C 
ATOM     17  C19 ZIN AC000      32.962 181.994 138.531  0.00  0.00     0.003 C 
ATOM     18  C18 ZIN AC000      34.256 181.178 138.537  0.00  0.00     0.000 C 
ATOM     19  C17 ZIN AC000      35.413 182.060 139.008  0.00  0.00     0.003 C 
ATOM     20  C16 ZIN AC000      35.125 182.569 140.421  0.00  0.00     0.038 C 
BRANCH  15  21
ATOM     21  O15 ZIN AC000      33.973 184.497 139.529  0.00  0.00    -0.389 OA
ATOM     22  H36 ZIN AC000      34.569 184.333 138.785  0.00  0.00     0.210 HD
ENDBRANCH  15  21
ENDBRANCH   1  15
TORSDOF 6
ENDMDL
MODEL 3
REMARK VINA RESULT:      -7.3      2.119      3.236
REMARK  6 active torsions:
REMARK  status: ('A' for Active; 'I' for Inactive)
REMARK    1  A    between atoms: O2_2  and  C3_3 
REMARK    2  A    between atoms: C6_6  and  C7_7 
REMARK    3  A    between atoms: C7_7  and  C9_8 
REMARK    4  A    between atoms: C7_7  and  C14_13 
REMARK    5  A    between atoms: C9_8  and  N10_9 
REMARK    6  A    between atoms: C14_13  and  O15_14 
ROOT
ATOM      1  C7  ZIN AC000      34.332 183.402 141.269  0.00  0.00     0.079 C 
ENDROOT
BRANCH   1   2
ATOM      2  C6  ZIN AC000      33.213 183.919 142.136  0.00  0.00    -0.049 A 
ATOM      3  C5  ZIN AC000      33.497 184.730 143.218  0.00  0.00     0.010 A 
ATOM      4  C4  ZIN AC000      32.472 185.206 144.014  0.00  0.00     0.037 A 
ATOM      5  C3  ZIN AC000      31.158 184.869 143.725  0.00  0.00     0.068 A 
ATOM      6  C22 ZIN AC000      30.876 184.049 142.643  0.00  0.00     0.037 A 
ATOM      7  C21 ZIN AC000      31.904 183.580 141.847  0.00  0.00     0.010 A 
BRANCH   5   8
ATOM      8  O2  ZIN AC000      30.148 185.335 144.507  0.00  0.00    -0.356 OA
ATOM      9  C1  ZIN AC000      30.345 185.280 145.922  0.00  0.00     0.210 C 
ENDBRANCH   5   8
ENDBRANCH   1   2
BRANCH   1  10
ATOM     10  C9  ZIN AC000      35.405 184.483 141.123  0.00  0.00     0.246 C 
BRANCH  10  11
ATOM     11  N10 ZIN AC000      35.466 184.928 139.724  0.00  0.00    -0.078 N 
ATOM     12  H11 ZIN AC000      36.425 184.913 139.409  0.00  0.00     0.279 HD
ATOM     13  C12 ZIN AC000      34.661 184.029 138.888  0.00  0.00     0.269 C 
ATOM     14  C13 ZIN AC000      34.938 186.295 139.622  0.00  0.00     0.269 C 
ENDBRANCH  10  11
ENDBRANCH   1  10
BRANCH   1  15
ATOM     15  C14 ZIN AC000      34.947 182.159 141.917  0.00  0.00     0.067 C 
ATOM     16  C20 ZIN AC000      36.456 182.357 142.067  0.00  0.00     0.038 C 
ATOM     17  C19 ZIN AC000      37.070 181.114 142.714  0.00  0.00     0.003 C 
ATOM     18  C18 ZIN AC000      36.802 179.894 141.831  0.00  0.00     0.000 C 
ATOM     19  C17 ZIN AC000      35.293 179.697 141.679  0.00  0.00     0.003 C 
ATOM     20  C16 ZIN AC000      34.678 180.939 141.033  0.00  0.00     0.038 C 
BRANCH  15  21
ATOM     21  O15 ZIN AC000      34.362 181.953 143.203  0.00  0.00    -0.389 OA
ATOM     22  H36 ZIN AC000      34.208 182.768 143.701  0.00  0.00     0.210 HD
ENDBRANCH  15  21
ENDBRANCH   1  15
TORSDOF 6
ENDMDL
MODEL 4
REMARK VINA RESULT:      -6.8      3.871      6.744
REMARK  6 active torsions:
REMARK  status: ('A' for Active; 'I' for Inactive)
REMARK    1  A    between atoms: O2_2  and  C3_3 
REMARK    2  A    between atoms: C6_6  and  C7_7 
REMARK    3  A    between atoms: C7_7  and  C9_8 
REMARK    4  A    between atoms: C7_7  and  C14_13 
REMARK    5  A    between atoms: C9_8  and  N10_9 
REMARK    6  A    between atoms: C14_13  and  O15_14 
ROOT
ATOM      1  C7  ZIN AC000      37.492 181.123 142.977  0.00  0.00     0.079 C 
ENDROOT
BRANCH   1   2
ATOM      2  C6  ZIN AC000      38.504 180.164 142.407  0.00  0.00    -0.049 A 
ATOM      3  C5  ZIN AC000      38.203 178.819 142.311  0.00  0.00     0.010 A 
ATOM      4  C4  ZIN AC000      39.129 177.937 141.787  0.00  0.00     0.037 A 
ATOM      5  C3  ZIN AC000      40.364 178.404 141.359  0.00  0.00     0.068 A 
ATOM      6  C22 ZIN AC000      40.667 179.753 141.464  0.00  0.00     0.037 A 
ATOM      7  C21 ZIN AC000      39.735 180.631 141.983  0.00  0.00     0.010 A 
BRANCH   5   8
ATOM      8  O2  ZIN AC000      41.278 177.539 140.845  0.00  0.00    -0.356 OA
ATOM      9  C1  ZIN AC000      42.504 178.099 140.370  0.00  0.00     0.210 C 
ENDBRANCH   5   8
ENDBRANCH   1   2
BRANCH   1  10
ATOM     10  C9  ZIN AC000      38.124 182.509 143.117  0.00  0.00     0.246 C 
BRANCH  10  11
ATOM     11  N10 ZIN AC000      37.488 183.228 144.229  0.00  0.00    -0.078 N 
ATOM     12  H11 ZIN AC000      36.530 183.436 143.990  0.00  0.00     0.279 HD
ATOM     13  C12 ZIN AC000      37.523 182.394 145.437  0.00  0.00     0.269 C 
ATOM     14  C13 ZIN AC000      38.213 184.481 144.480  0.00  0.00     0.269 C 
ENDBRANCH  10  11
ENDBRANCH   1  10
BRANCH   1  15
ATOM     15  C14 ZIN AC000      36.284 181.206 142.041  0.00  0.00     0.067 C 
ATOM     16  C20 ZIN AC000      35.757 179.797 141.763  0.00  0.00     0.038 C 
ATOM     17  C19 ZIN AC000      34.550 179.880 140.826  0.00  0.00     0.003 C 
ATOM     18  C18 ZIN AC000      34.970 180.536 139.510  0.00  0.00     0.000 C 
ATOM     19  C17 ZIN AC000      35.498 181.945 139.788  0.00  0.00     0.003 C 
ATOM     20  C16 ZIN AC000      36.705 181.862 140.724  0.00  0.00     0.038 C 
BRANCH  15  21
ATOM     21  O15 ZIN AC000      35.257 181.986 142.656  0.00  0.00    -0.389 OA
ATOM     22  H36 ZIN AC000      34.511 182.182 142.074  0.00  0.00     0.210 HD
ENDBRANCH  15  21
ENDBRANCH   1  15
TORSDOF 6
ENDMDL
MODEL 5
REMARK VINA RESULT:      -6.7      3.004      5.781
REMARK  6 active torsions:
REMARK  status: ('A' for Active; 'I' for Inactive)
REMARK    1  A    between atoms: O2_2  and  C3_3 
REMARK    2  A    between atoms: C6_6  and  C7_7 
REMARK    3  A    between atoms: C7_7  and  C9_8 
REMARK    4  A    between atoms: C7_7  and  C14_13 
REMARK    5  A    between atoms: C9_8  and  N10_9 
REMARK    6  A    between atoms: C14_13  and  O15_14 
ROOT
ATOM      1  C7  ZIN AC000      35.780 181.823 141.950  0.00  0.00     0.079 C 
ENDROOT
BRANCH   1   2
ATOM      2  C6  ZIN AC000      37.094 181.087 141.943  0.00  0.00    -0.049 A 
ATOM      3  C5  ZIN AC000      37.123 179.722 142.159  0.00  0.00     0.010 A 
ATOM      4  C4  ZIN AC000      38.327 179.045 142.152  0.00  0.00     0.037 A 
ATOM      5  C3  ZIN AC000      39.509 179.737 141.927  0.00  0.00     0.068 A 
ATOM      6  C22 ZIN AC000      39.478 181.108 141.718  0.00  0.00     0.037 A 
ATOM      7  C21 ZIN AC000      38.271 181.779 141.720  0.00  0.00     0.010 A 
BRANCH   5   8
ATOM      8  O2  ZIN AC000      40.695 179.074 141.921  0.00  0.00    -0.356 OA
ATOM      9  C1  ZIN AC000      41.740 179.622 141.113  0.00  0.00     0.210 C 
ENDBRANCH   5   8
ENDBRANCH   1   2
BRANCH   1  10
ATOM     10  C9  ZIN AC000      36.036 183.327 141.840  0.00  0.00     0.246 C 
BRANCH  10  11
ATOM     11  N10 ZIN AC000      35.680 183.980 143.107  0.00  0.00    -0.078 N 
ATOM     12  H11 ZIN AC000      36.510 184.365 143.530  0.00  0.00     0.279 HD
ATOM     13  C12 ZIN AC000      34.715 185.057 142.849  0.00  0.00     0.269 C 
ATOM     14  C13 ZIN AC000      35.080 182.992 144.014  0.00  0.00     0.269 C 
ENDBRANCH  10  11
ENDBRANCH   1  10
BRANCH   1  15
ATOM     15  C14 ZIN AC000      34.930 181.362 140.763  0.00  0.00     0.067 C 
ATOM     16  C20 ZIN AC000      35.671 181.665 139.459  0.00  0.00     0.038 C 
ATOM     17  C19 ZIN AC000      34.821 181.205 138.273  0.00  0.00     0.003 C 
ATOM     18  C18 ZIN AC000      33.484 181.948 138.284  0.00  0.00     0.000 C 
ATOM     19  C17 ZIN AC000      32.744 181.646 139.589  0.00  0.00     0.003 C 
ATOM     20  C16 ZIN AC000      33.593 182.106 140.775  0.00  0.00     0.038 C 
BRANCH  15  21
ATOM     21  O15 ZIN AC000      34.695 179.956 140.863  0.00  0.00    -0.389 OA
ATOM     22  H36 ZIN AC000      34.003 179.717 141.495  0.00  0.00     0.210 HD
ENDBRANCH  15  21
ENDBRANCH   1  15
TORSDOF 6
ENDMDL
MODEL 6
REMARK VINA RESULT:      -6.7      3.889      8.108
REMARK  6 active torsions:
REMARK  status: ('A' for Active; 'I' for Inactive)
REMARK    1  A    between atoms: O2_2  and  C3_3 
REMARK    2  A    between atoms: C6_6  and  C7_7 
REMARK    3  A    between atoms: C7_7  and  C9_8 
REMARK    4  A    between atoms: C7_7  and  C14_13 
REMARK    5  A    between atoms: C9_8  and  N10_9 
REMARK    6  A    between atoms: C14_13  and  O15_14 
ROOT
ATOM      1  C7  ZIN AC000      38.967 182.917 142.385  0.00  0.00     0.079 C 
ENDROOT
BRANCH   1   2
ATOM      2  C6  ZIN AC000      40.030 181.958 141.916  0.00  0.00    -0.049 A 
ATOM      3  C5  ZIN AC000      39.797 180.596 141.957  0.00  0.00     0.010 A 
ATOM      4  C4  ZIN AC000      40.769 179.714 141.526  0.00  0.00     0.037 A 
ATOM      5  C3  ZIN AC000      41.981 180.197 141.053  0.00  0.00     0.068 A 
ATOM      6  C22 ZIN AC000      42.215 181.563 141.019  0.00  0.00     0.037 A 
ATOM      7  C21 ZIN AC000      41.237 182.441 141.445  0.00  0.00     0.010 A 
BRANCH   5   8
ATOM      8  O2  ZIN AC000      42.940 179.332 140.629  0.00  0.00    -0.356 OA
ATOM      9  C1  ZIN AC000      43.598 179.644 139.400  0.00  0.00     0.210 C 
ENDBRANCH   5   8
ENDBRANCH   1   2
BRANCH   1  10
ATOM     10  C9  ZIN AC000      37.588 182.280 142.204  0.00  0.00     0.246 C 
BRANCH  10  11
ATOM     11  N10 ZIN AC000      36.919 182.880 141.042  0.00  0.00    -0.078 N 
ATOM     12  H11 ZIN AC000      37.612 183.185 140.376  0.00  0.00     0.279 HD
ATOM     13  C12 ZIN AC000      36.038 181.887 140.415  0.00  0.00     0.269 C 
ATOM     14  C13 ZIN AC000      36.121 184.034 141.480  0.00  0.00     0.269 C 
ENDBRANCH  10  11
ENDBRANCH   1  10
BRANCH   1  15
ATOM     15  C14 ZIN AC000      39.189 183.241 143.864  0.00  0.00     0.067 C 
ATOM     16  C20 ZIN AC000      37.940 182.860 144.661  0.00  0.00     0.038 C 
ATOM     17  C19 ZIN AC000      38.161 183.184 146.140  0.00  0.00     0.003 C 
ATOM     18  C18 ZIN AC000      38.430 184.681 146.300  0.00  0.00     0.000 C 
ATOM     19  C17 ZIN AC000      39.678 185.063 145.502  0.00  0.00     0.003 C 
ATOM     20  C16 ZIN AC000      39.458 184.739 144.023  0.00  0.00     0.038 C 
BRANCH  15  21
ATOM     21  O15 ZIN AC000      40.309 182.501 144.351  0.00  0.00    -0.389 OA
ATOM     22  H36 ZIN AC000      40.251 181.549 144.193  0.00  0.00     0.210 HD
ENDBRANCH  15  21
ENDBRANCH   1  15
TORSDOF 6
ENDMDL
MODEL 7
REMARK VINA RESULT:      -6.6      2.522      4.970
REMARK  6 active torsions:
REMARK  status: ('A' for Active; 'I' for Inactive)
REMARK    1  A    between atoms: O2_2  and  C3_3 
REMARK    2  A    between atoms: C6_6  and  C7_7 
REMARK    3  A    between atoms: C7_7  and  C9_8 
REMARK    4  A    between atoms: C7_7  and  C14_13 
REMARK    5  A    between atoms: C9_8  and  N10_9 
REMARK    6  A    between atoms: C14_13  and  O15_14 
ROOT
ATOM      1  C7  ZIN AC000      35.790 183.305 142.359  0.00  0.00     0.079 C 
ENDROOT
BRANCH   1   2
ATOM      2  C6  ZIN AC000      37.137 183.511 143.001  0.00  0.00    -0.049 A 
ATOM      3  C5  ZIN AC000      38.204 183.950 142.240  0.00  0.00     0.010 A 
ATOM      4  C4  ZIN AC000      39.441 184.140 142.826  0.00  0.00     0.037 A 
ATOM      5  C3  ZIN AC000      39.611 183.889 144.180  0.00  0.00     0.068 A 
ATOM      6  C22 ZIN AC000      38.540 183.442 144.940  0.00  0.00     0.037 A 
ATOM      7  C21 ZIN AC000      37.304 183.259 144.350  0.00  0.00     0.010 A 
BRANCH   5   8
ATOM      8  O2  ZIN AC000      40.826 184.075 144.760  0.00  0.00    -0.356 OA
ATOM      9  C1  ZIN AC000      41.915 183.306 144.243  0.00  0.00     0.210 C 
ENDBRANCH   5   8
ENDBRANCH   1   2
BRANCH   1  10
ATOM     10  C9  ZIN AC000      35.473 184.492 141.446  0.00  0.00     0.246 C 
BRANCH  10  11
ATOM     11  N10 ZIN AC000      34.788 185.537 142.220  0.00  0.00    -0.078 N 
ATOM     12  H11 ZIN AC000      35.467 186.058 142.754  0.00  0.00     0.279 HD
ATOM     13  C12 ZIN AC000      34.084 186.443 141.304  0.00  0.00     0.269 C 
ATOM     14  C13 ZIN AC000      33.820 184.914 143.132  0.00  0.00     0.269 C 
ENDBRANCH  10  11
ENDBRANCH   1  10
BRANCH   1  15
ATOM     15  C14 ZIN AC000      35.809 182.018 141.531  0.00  0.00     0.067 C 
ATOM     16  C20 ZIN AC000      34.415 181.761 140.956  0.00  0.00     0.038 C 
ATOM     17  C19 ZIN AC000      34.435 180.473 140.130  0.00  0.00     0.003 C 
ATOM     18  C18 ZIN AC000      34.842 179.300 141.023  0.00  0.00     0.000 C 
ATOM     19  C17 ZIN AC000      36.236 179.557 141.599  0.00  0.00     0.003 C 
ATOM     20  C16 ZIN AC000      36.217 180.844 142.425  0.00  0.00     0.038 C 
BRANCH  15  21
ATOM     21  O15 ZIN AC000      36.749 182.152 140.463  0.00  0.00    -0.389 OA
ATOM     22  H36 ZIN AC000      36.457 182.742 139.755  0.00  0.00     0.210 HD
ENDBRANCH  15  21
ENDBRANCH   1  15
TORSDOF 6
ENDMDL
MODEL 8
REMARK VINA RESULT:      -6.5      3.462      8.005
REMARK  6 active torsions:
REMARK  status: ('A' for Active; 'I' for Inactive)
REMARK    1  A    between atoms: O2_2  and  C3_3 
REMARK    2  A    between atoms: C6_6  and  C7_7 
REMARK    3  A    between atoms: C7_7  and  C9_8 
REMARK    4  A    between atoms: C7_7  and  C14_13 
REMARK    5  A    between atoms: C9_8  and  N10_9 
REMARK    6  A    between atoms: C14_13  and  O15_14 
ROOT
ATOM      1  C7  ZIN AC000      38.644 184.080 142.790  0.00  0.00     0.079 C 
ENDROOT
BRANCH   1   2
ATOM      2  C6  ZIN AC000      39.882 183.386 142.282  0.00  0.00    -0.049 A 
ATOM      3  C5  ZIN AC000      40.838 184.102 141.588  0.00  0.00     0.010 A 
ATOM      4  C4  ZIN AC000      41.975 183.469 141.122  0.00  0.00     0.037 A 
ATOM      5  C3  ZIN AC000      42.155 182.113 141.352  0.00  0.00     0.068 A 
ATOM      6  C22 ZIN AC000      41.190 181.395 142.043  0.00  0.00     0.037 A 
ATOM      7  C21 ZIN AC000      40.058 182.034 142.512  0.00  0.00     0.010 A 
BRANCH   5   8
ATOM      8  O2  ZIN AC000      43.271 181.487 140.895  0.00  0.00    -0.356 OA
ATOM      9  C1  ZIN AC000      43.156 180.778 139.658  0.00  0.00     0.210 C 
ENDBRANCH   5   8
ENDBRANCH   1   2
BRANCH   1  10
ATOM     10  C9  ZIN AC000      37.443 183.140 142.660  0.00  0.00     0.246 C 
BRANCH  10  11
ATOM     11  N10 ZIN AC000      36.897 183.227 141.299  0.00  0.00    -0.078 N 
ATOM     12  H11 ZIN AC000      37.606 183.581 140.675  0.00  0.00     0.279 HD
ATOM     13  C12 ZIN AC000      36.474 181.893 140.854  0.00  0.00     0.269 C 
ATOM     14  C13 ZIN AC000      35.741 184.134 141.293  0.00  0.00     0.269 C 
ENDBRANCH  10  11
ENDBRANCH   1  10
BRANCH   1  15
ATOM     15  C14 ZIN AC000      38.838 184.459 144.260  0.00  0.00     0.067 C 
ATOM     16  C20 ZIN AC000      40.332 184.476 144.589  0.00  0.00     0.038 C 
ATOM     17  C19 ZIN AC000      40.525 184.855 146.058  0.00  0.00     0.003 C 
ATOM     18  C18 ZIN AC000      39.820 183.828 146.947  0.00  0.00     0.000 C 
ATOM     19  C17 ZIN AC000      38.326 183.809 146.617  0.00  0.00     0.003 C 
ATOM     20  C16 ZIN AC000      38.132 183.431 145.148  0.00  0.00     0.038 C 
BRANCH  15  21
ATOM     21  O15 ZIN AC000      38.282 185.753 144.495  0.00  0.00    -0.389 OA
ATOM     22  H36 ZIN AC000      37.722 185.804 145.282  0.00  0.00     0.210 HD
ENDBRANCH  15  21
ENDBRANCH   1  15
TORSDOF 6
ENDMDL
MODEL 9
REMARK VINA RESULT:      -6.4     13.933     17.001
REMARK  6 active torsions:
REMARK  status: ('A' for Active; 'I' for Inactive)
REMARK    1  A    between atoms: O2_2  and  C3_3 
REMARK    2  A    between atoms: C6_6  and  C7_7 
REMARK    3  A    between atoms: C7_7  and  C9_8 
REMARK    4  A    between atoms: C7_7  and  C14_13 
REMARK    5  A    between atoms: C9_8  and  N10_9 
REMARK    6  A    between atoms: C14_13  and  O15_14 
ROOT
ATOM      1  C7  ZIN AC000      20.929 178.268 147.276  0.00  0.00     0.079 C 
ENDROOT
BRANCH   1   2
ATOM      2  C6  ZIN AC000      21.238 176.794 147.324  0.00  0.00    -0.049 A 
ATOM      3  C5  ZIN AC000      21.409 176.087 146.149  0.00  0.00     0.010 A 
ATOM      4  C4  ZIN AC000      21.694 174.735 146.189  0.00  0.00     0.037 A 
ATOM      5  C3  ZIN AC000      21.808 174.089 147.412  0.00  0.00     0.068 A 
ATOM      6  C22 ZIN AC000      21.630 174.799 148.589  0.00  0.00     0.037 A 
ATOM      7  C21 ZIN AC000      21.351 176.152 148.543  0.00  0.00     0.010 A 
BRANCH   5   8
ATOM      8  O2  ZIN AC000      22.087 172.759 147.455  0.00  0.00    -0.356 OA
ATOM      9  C1  ZIN AC000      23.256 172.366 148.178  0.00  0.00     0.210 C 
ENDBRANCH   5   8
ENDBRANCH   1   2
BRANCH   1  10
ATOM     10  C9  ZIN AC000      21.469 178.861 145.973  0.00  0.00     0.246 C 
BRANCH  10  11
ATOM     11  N10 ZIN AC000      22.793 179.450 146.215  0.00  0.00    -0.078 N 
ATOM     12  H11 ZIN AC000      23.502 178.742 146.095  0.00  0.00     0.279 HD
ATOM     13  C12 ZIN AC000      23.025 180.543 145.262  0.00  0.00     0.269 C 
ATOM     14  C13 ZIN AC000      22.852 179.975 147.586  0.00  0.00     0.269 C 
ENDBRANCH  10  11
ENDBRANCH   1  10
BRANCH   1  15
ATOM     15  C14 ZIN AC000      19.413 178.473 147.339  0.00  0.00     0.067 C 
ATOM     16  C20 ZIN AC000      18.951 179.239 146.098  0.00  0.00     0.038 C 
ATOM     17  C19 ZIN AC000      17.437 179.445 146.161  0.00  0.00     0.003 C 
ATOM     18  C18 ZIN AC000      17.083 180.247 147.416  0.00  0.00     0.000 C 
ATOM     19  C17 ZIN AC000      17.546 179.482 148.657  0.00  0.00     0.003 C 
ATOM     20  C16 ZIN AC000      19.060 179.275 148.594  0.00  0.00     0.038 C 
BRANCH  15  21
ATOM     21  O15 ZIN AC000      18.762 177.203 147.386  0.00  0.00    -0.389 OA
ATOM     22  H36 ZIN AC000      17.813 177.241 147.204  0.00  0.00     0.210 HD
ENDBRANCH  15  21
ENDBRANCH   1  15
TORSDOF 6
ENDMDL
