REMARK  7 active torsions:
REMARK  status: ('A' for Active; 'I' for Inactive)
REMARK    1  A    between atoms: C1_2  and  C2_5 
REMARK    2  A    between atoms: C5_8  and  O1_11 
REMARK    3  A    between atoms: O1_11  and  C8_12 
REMARK    4  A    between atoms: C8_12  and  C9_13 
REMARK    5  A    between atoms: C8_12  and  C12_17 
REMARK    6  A    between atoms: C9_13  and  C10_14 
REMARK    7  A    between atoms: C10_14  and  N1_15 
ROOT
ATOM      1  C8  UNK     1     160.213 135.832 499.824  1.00  0.00     0.163 C 
ENDROOT
BRANCH   1   2
ATOM      2  O1  UNK     1     158.932 135.972 500.442  1.00  0.00    -0.341 OA
BRANCH   2   3
ATOM      3  C5  UNK     1     158.418 137.228 500.516  1.00  0.00     0.069 A 
ATOM      4  C4  UNK     1     159.154 138.310 500.056  1.00  0.00     0.037 A 
ATOM      5  C3  UNK     1     158.629 139.585 500.134  1.00  0.00     0.019 A 
ATOM      6  C2  UNK     1     157.370 139.783 500.668  1.00  0.00     0.048 A 
ATOM      7  C7  UNK     1     156.635 138.708 501.133  1.00  0.00     0.019 A 
ATOM      8  C6  UNK     1     157.154 137.431 501.053  1.00  0.00     0.037 A 
BRANCH   6   9
ATOM      9  C1  UNK     1     156.799 141.176 500.752  1.00  0.00     0.417 C 
ATOM     10  F1  UNK     1     156.090 141.460 499.580  1.00  0.00    -0.166 F 
ATOM     11  F2  UNK     1     157.841 142.099 500.902  1.00  0.00    -0.166 F 
ATOM     12  F3  UNK     1     155.937 141.263 501.850  1.00  0.00    -0.166 F 
ENDBRANCH   6   9
ENDBRANCH   2   3
ENDBRANCH   1   2
BRANCH   1  13
ATOM     13  C9  UNK     1     160.030 135.499 498.342  1.00  0.00     0.065 C 
BRANCH  13  14
ATOM     14  C10 UNK     1     159.365 136.680 497.631  1.00  0.00     0.234 C 
BRANCH  14  15
ATOM     15  N1  UNK     1     159.190 136.360 496.209  1.00  0.00    -0.079 N 
ATOM     16  C11 UNK     1     158.554 137.474 495.493  1.00  0.00     0.266 C 
ATOM     17  H17 UNK     1     160.071 136.112 495.782  1.00  0.00     0.276 HD
ATOM     18  HN2 UNK     1     158.578 135.559 496.144  1.00  0.00     0.276 HD
ENDBRANCH  14  15
ENDBRANCH  13  14
ENDBRANCH   1  13
BRANCH   1  19
ATOM     19  C12 UNK     1     160.976 134.721 500.498  1.00  0.00    -0.029 A 
ATOM     20  C13 UNK     1     160.324 133.560 500.869  1.00  0.00     0.010 A 
ATOM     21  C14 UNK     1     161.024 132.542 501.488  1.00  0.00     0.001 A 
ATOM     22  C15 UNK     1     162.377 132.684 501.734  1.00  0.00     0.000 A 
ATOM     23  C16 UNK     1     163.029 133.844 501.362  1.00  0.00     0.001 A 
ATOM     24  C17 UNK     1     162.330 134.861 500.740  1.00  0.00     0.010 A 
ENDBRANCH   1  19
TORSDOF 7
