MODEL 1
REMARK VINA RESULT:      -8.9      0.000      0.000
REMARK  7 active torsions:
REMARK  status: ('A' for Active; 'I' for Inactive)
REMARK    1  A    between atoms: C1_2  and  C2_5 
REMARK    2  A    between atoms: C5_8  and  O1_11 
REMARK    3  A    between atoms: O1_11  and  C8_12 
REMARK    4  A    between atoms: C8_12  and  C9_13 
REMARK    5  A    between atoms: C8_12  and  C12_17 
REMARK    6  A    between atoms: C9_13  and  C10_14 
REMARK    7  A    between atoms: C10_14  and  N1_15 
ROOT
ATOM      1  C8  UNK     1      33.965 184.087 141.602  1.00  0.00     0.163 C 
ENDROOT
BRANCH   1   2
ATOM      2  O1  UNK     1      32.694 184.721 141.440  1.00  0.00    -0.341 OA
BRANCH   2   3
ATOM      3  C5  UNK     1      31.862 184.717 142.515  1.00  0.00     0.069 A 
ATOM      4  C4  UNK     1      30.634 184.076 142.443  1.00  0.00     0.037 A 
ATOM      5  C3  UNK     1      29.791 184.075 143.537  1.00  0.00     0.019 A 
ATOM      6  C2  UNK     1      30.171 184.712 144.704  1.00  0.00     0.048 A 
ATOM      7  C7  UNK     1      31.392 185.357 144.778  1.00  0.00     0.019 A 
ATOM      8  C6  UNK     1      32.240 185.356 143.688  1.00  0.00     0.037 A 
BRANCH   6   9
ATOM      9  C1  UNK     1      29.249 184.710 145.897  1.00  0.00     0.417 C 
ATOM     10  F1  UNK     1      29.992 184.938 147.060  1.00  0.00    -0.166 F 
ATOM     11  F2  UNK     1      28.608 183.468 145.989  1.00  0.00    -0.166 F 
ATOM     12  F3  UNK     1      28.292 185.719 145.750  1.00  0.00    -0.166 F 
ENDBRANCH   6   9
ENDBRANCH   2   3
ENDBRANCH   1   2
BRANCH   1  13
ATOM     13  C9  UNK     1      35.047 184.939 140.937  1.00  0.00     0.065 C 
BRANCH  13  14
ATOM     14  C10 UNK     1      34.500 186.344 140.670  1.00  0.00     0.234 C 
BRANCH  14  15
ATOM     15  N1  UNK     1      35.207 186.935 139.527  1.00  0.00    -0.079 N 
ATOM     16  C11 UNK     1      35.081 186.087 138.334  1.00  0.00     0.266 C 
ATOM     17  H17 UNK     1      34.877 187.871 139.341  1.00  0.00     0.276 HD
ATOM     18  HN2 UNK     1      36.187 186.994 139.764  1.00  0.00     0.276 HD
ENDBRANCH  14  15
ENDBRANCH  13  14
ENDBRANCH   1  13
BRANCH   1  19
ATOM     19  C12 UNK     1      33.932 182.725 140.959  1.00  0.00    -0.029 A 
ATOM     20  C13 UNK     1      34.690 181.694 141.483  1.00  0.00     0.010 A 
ATOM     21  C14 UNK     1      34.660 180.446 140.892  1.00  0.00     0.001 A 
ATOM     22  C15 UNK     1      33.870 180.227 139.779  1.00  0.00     0.000 A 
ATOM     23  C16 UNK     1      33.111 181.256 139.256  1.00  0.00     0.001 A 
ATOM     24  C17 UNK     1      33.138 182.505 139.849  1.00  0.00     0.010 A 
ENDBRANCH   1  19
TORSDOF 7
ENDMDL
MODEL 2
REMARK VINA RESULT:      -7.8      5.117      7.417
REMARK  7 active torsions:
REMARK  status: ('A' for Active; 'I' for Inactive)
REMARK    1  A    between atoms: C1_2  and  C2_5 
REMARK    2  A    between atoms: C5_8  and  O1_11 
REMARK    3  A    between atoms: O1_11  and  C8_12 
REMARK    4  A    between atoms: C8_12  and  C9_13 
REMARK    5  A    between atoms: C8_12  and  C12_17 
REMARK    6  A    between atoms: C9_13  and  C10_14 
REMARK    7  A    between atoms: C10_14  and  N1_15 
ROOT
ATOM      1  C8  UNK     1      33.846 182.504 141.500  1.00  0.00     0.163 C 
ENDROOT
BRANCH   1   2
ATOM      2  O1  UNK     1      35.207 182.920 141.634  1.00  0.00    -0.341 OA
BRANCH   2   3
ATOM      3  C5  UNK     1      36.143 181.939 141.737  1.00  0.00     0.069 A 
ATOM      4  C4  UNK     1      35.753 180.618 141.897  1.00  0.00     0.037 A 
ATOM      5  C3  UNK     1      36.706 179.625 142.004  1.00  0.00     0.019 A 
ATOM      6  C2  UNK     1      38.049 179.946 141.949  1.00  0.00     0.048 A 
ATOM      7  C7  UNK     1      38.443 181.263 141.795  1.00  0.00     0.019 A 
ATOM      8  C6  UNK     1      37.493 182.259 141.684  1.00  0.00     0.037 A 
BRANCH   6   9
ATOM      9  C1  UNK     1      39.088 178.860 142.065  1.00  0.00     0.417 C 
ATOM     10  F1  UNK     1      39.587 178.832 143.372  1.00  0.00    -0.166 F 
ATOM     11  F2  UNK     1      40.134 179.117 141.171  1.00  0.00    -0.166 F 
ATOM     12  F3  UNK     1      38.509 177.624 141.762  1.00  0.00    -0.166 F 
ENDBRANCH   6   9
ENDBRANCH   2   3
ENDBRANCH   1   2
BRANCH   1  13
ATOM     13  C9  UNK     1      33.455 182.511 140.021  1.00  0.00     0.065 C 
BRANCH  13  14
ATOM     14  C10 UNK     1      34.251 183.593 139.286  1.00  0.00     0.234 C 
BRANCH  14  15
ATOM     15  N1  UNK     1      35.323 182.966 138.505  1.00  0.00    -0.079 N 
ATOM     16  C11 UNK     1      35.036 181.546 138.261  1.00  0.00     0.266 C 
ATOM     17  H17 UNK     1      35.474 183.458 137.636  1.00  0.00     0.276 HD
ATOM     18  HN2 UNK     1      36.175 183.022 139.045  1.00  0.00     0.276 HD
ENDBRANCH  14  15
ENDBRANCH  13  14
ENDBRANCH   1  13
BRANCH   1  19
ATOM     19  C12 UNK     1      32.956 183.453 142.260  1.00  0.00    -0.029 A 
ATOM     20  C13 UNK     1      31.615 183.549 141.940  1.00  0.00     0.010 A 
ATOM     21  C14 UNK     1      30.799 184.420 142.636  1.00  0.00     0.001 A 
ATOM     22  C15 UNK     1      31.324 185.193 143.655  1.00  0.00     0.000 A 
ATOM     23  C16 UNK     1      32.664 185.097 143.976  1.00  0.00     0.001 A 
ATOM     24  C17 UNK     1      33.480 184.223 143.281  1.00  0.00     0.010 A 
ENDBRANCH   1  19
TORSDOF 7
ENDMDL
MODEL 3
REMARK VINA RESULT:      -7.6      6.549      8.705
REMARK  7 active torsions:
REMARK  status: ('A' for Active; 'I' for Inactive)
REMARK    1  A    between atoms: C1_2  and  C2_5 
REMARK    2  A    between atoms: C5_8  and  O1_11 
REMARK    3  A    between atoms: O1_11  and  C8_12 
REMARK    4  A    between atoms: C8_12  and  C9_13 
REMARK    5  A    between atoms: C8_12  and  C12_17 
REMARK    6  A    between atoms: C9_13  and  C10_14 
REMARK    7  A    between atoms: C10_14  and  N1_15 
ROOT
ATOM      1  C8  UNK     1      35.810 181.477 142.460  1.00  0.00     0.163 C 
ENDROOT
BRANCH   1   2
ATOM      2  O1  UNK     1      36.143 180.094 142.596  1.00  0.00    -0.341 OA
BRANCH   2   3
ATOM      3  C5  UNK     1      37.415 179.732 142.284  1.00  0.00     0.069 A 
ATOM      4  C4  UNK     1      37.739 178.393 142.121  1.00  0.00     0.037 A 
ATOM      5  C3  UNK     1      39.033 178.030 141.805  1.00  0.00     0.019 A 
ATOM      6  C2  UNK     1      40.005 179.000 141.649  1.00  0.00     0.048 A 
ATOM      7  C7  UNK     1      39.688 180.335 141.816  1.00  0.00     0.019 A 
ATOM      8  C6  UNK     1      38.395 180.704 142.128  1.00  0.00     0.037 A 
BRANCH   6   9
ATOM      9  C1  UNK     1      41.418 178.600 141.304  1.00  0.00     0.417 C 
ATOM     10  F1  UNK     1      42.049 179.654 140.635  1.00  0.00    -0.166 F 
ATOM     11  F2  UNK     1      41.394 177.471 140.477  1.00  0.00    -0.166 F 
ATOM     12  F3  UNK     1      42.121 178.306 142.476  1.00  0.00    -0.166 F 
ENDBRANCH   6   9
ENDBRANCH   2   3
ENDBRANCH   1   2
BRANCH   1  13
ATOM     13  C9  UNK     1      35.345 182.025 143.811  1.00  0.00     0.065 C 
BRANCH  13  14
ATOM     14  C10 UNK     1      36.497 182.776 144.482  1.00  0.00     0.234 C 
BRANCH  14  15
ATOM     15  N1  UNK     1      37.011 183.803 143.567  1.00  0.00    -0.079 N 
ATOM     16  C11 UNK     1      38.081 184.585 144.200  1.00  0.00     0.266 C 
ATOM     17  H17 UNK     1      37.328 183.391 142.701  1.00  0.00     0.276 HD
ATOM     18  HN2 UNK     1      36.252 184.434 143.350  1.00  0.00     0.276 HD
ENDBRANCH  14  15
ENDBRANCH  13  14
ENDBRANCH   1  13
BRANCH   1  19
ATOM     19  C12 UNK     1      34.704 181.629 141.448  1.00  0.00    -0.029 A 
ATOM     20  C13 UNK     1      33.891 182.747 141.475  1.00  0.00     0.010 A 
ATOM     21  C14 UNK     1      32.876 182.885 140.548  1.00  0.00     0.001 A 
ATOM     22  C15 UNK     1      32.675 181.907 139.591  1.00  0.00     0.000 A 
ATOM     23  C16 UNK     1      33.489 180.791 139.564  1.00  0.00     0.001 A 
ATOM     24  C17 UNK     1      34.506 180.653 140.489  1.00  0.00     0.010 A 
ENDBRANCH   1  19
TORSDOF 7
ENDMDL
MODEL 4
REMARK VINA RESULT:      -7.6      5.990      8.150
REMARK  7 active torsions:
REMARK  status: ('A' for Active; 'I' for Inactive)
REMARK    1  A    between atoms: C1_2  and  C2_5 
REMARK    2  A    between atoms: C5_8  and  O1_11 
REMARK    3  A    between atoms: O1_11  and  C8_12 
REMARK    4  A    between atoms: C8_12  and  C9_13 
REMARK    5  A    between atoms: C8_12  and  C12_17 
REMARK    6  A    between atoms: C9_13  and  C10_14 
REMARK    7  A    between atoms: C10_14  and  N1_15 
ROOT
ATOM      1  C8  UNK     1      39.363 181.188 142.043  1.00  0.00     0.163 C 
ENDROOT
BRANCH   1   2
ATOM      2  O1  UNK     1      38.130 180.732 142.603  1.00  0.00    -0.341 OA
BRANCH   2   3
ATOM      3  C5  UNK     1      37.024 180.828 141.819  1.00  0.00     0.069 A 
ATOM      4  C4  UNK     1      36.044 179.849 141.874  1.00  0.00     0.037 A 
ATOM      5  C3  UNK     1      34.922 179.950 141.075  1.00  0.00     0.019 A 
ATOM      6  C2  UNK     1      34.775 181.027 140.222  1.00  0.00     0.048 A 
ATOM      7  C7  UNK     1      35.753 182.003 140.160  1.00  0.00     0.019 A 
ATOM      8  C6  UNK     1      36.874 181.908 140.960  1.00  0.00     0.037 A 
BRANCH   6   9
ATOM      9  C1  UNK     1      33.549 181.135 139.351  1.00  0.00     0.417 C 
ATOM     10  F1  UNK     1      32.872 182.323 139.644  1.00  0.00    -0.166 F 
ATOM     11  F2  UNK     1      32.705 180.045 139.595  1.00  0.00    -0.166 F 
ATOM     12  F3  UNK     1      33.931 181.137 138.005  1.00  0.00    -0.166 F 
ENDBRANCH   6   9
ENDBRANCH   2   3
ENDBRANCH   1   2
BRANCH   1  13
ATOM     13  C9  UNK     1      40.288 179.993 141.804  1.00  0.00     0.065 C 
BRANCH  13  14
ATOM     14  C10 UNK     1      39.973 178.892 142.819  1.00  0.00     0.234 C 
BRANCH  14  15
ATOM     15  N1  UNK     1      39.214 177.822 142.161  1.00  0.00    -0.079 N 
ATOM     16  C11 UNK     1      40.096 176.972 141.350  1.00  0.00     0.266 C 
ATOM     17  H17 UNK     1      38.702 177.272 142.836  1.00  0.00     0.276 HD
ATOM     18  HN2 UNK     1      38.543 178.253 141.541  1.00  0.00     0.276 HD
ENDBRANCH  14  15
ENDBRANCH  13  14
ENDBRANCH   1  13
BRANCH   1  19
ATOM     19  C12 UNK     1      40.022 182.150 142.998  1.00  0.00    -0.029 A 
ATOM     20  C13 UNK     1      39.248 182.940 143.828  1.00  0.00     0.010 A 
ATOM     21  C14 UNK     1      39.853 183.822 144.702  1.00  0.00     0.001 A 
ATOM     22  C15 UNK     1      41.231 183.914 144.749  1.00  0.00     0.000 A 
ATOM     23  C16 UNK     1      42.005 183.124 143.920  1.00  0.00     0.001 A 
ATOM     24  C17 UNK     1      41.401 182.238 143.048  1.00  0.00     0.010 A 
ENDBRANCH   1  19
TORSDOF 7
ENDMDL
MODEL 5
REMARK VINA RESULT:      -6.8     12.536     15.566
REMARK  7 active torsions:
REMARK  status: ('A' for Active; 'I' for Inactive)
REMARK    1  A    between atoms: C1_2  and  C2_5 
REMARK    2  A    between atoms: C5_8  and  O1_11 
REMARK    3  A    between atoms: O1_11  and  C8_12 
REMARK    4  A    between atoms: C8_12  and  C9_13 
REMARK    5  A    between atoms: C8_12  and  C12_17 
REMARK    6  A    between atoms: C9_13  and  C10_14 
REMARK    7  A    between atoms: C10_14  and  N1_15 
ROOT
ATOM      1  C8  UNK     1      20.710 177.939 147.188  1.00  0.00     0.163 C 
ENDROOT
BRANCH   1   2
ATOM      2  O1  UNK     1      20.935 177.190 148.384  1.00  0.00    -0.341 OA
BRANCH   2   3
ATOM      3  C5  UNK     1      21.430 175.932 148.239  1.00  0.00     0.069 A 
ATOM      4  C4  UNK     1      21.786 175.464 146.983  1.00  0.00     0.037 A 
ATOM      5  C3  UNK     1      22.286 174.185 146.840  1.00  0.00     0.019 A 
ATOM      6  C2  UNK     1      22.435 173.372 147.947  1.00  0.00     0.048 A 
ATOM      7  C7  UNK     1      22.076 173.833 149.201  1.00  0.00     0.019 A 
ATOM      8  C6  UNK     1      21.579 175.113 149.350  1.00  0.00     0.037 A 
BRANCH   6   9
ATOM      9  C1  UNK     1      22.982 171.976 147.788  1.00  0.00     0.417 C 
ATOM     10  F1  UNK     1      22.473 171.159 148.803  1.00  0.00    -0.166 F 
ATOM     11  F2  UNK     1      24.379 172.010 147.873  1.00  0.00    -0.166 F 
ATOM     12  F3  UNK     1      22.603 171.464 146.543  1.00  0.00    -0.166 F 
ENDBRANCH   6   9
ENDBRANCH   2   3
ENDBRANCH   1   2
BRANCH   1  13
ATOM     13  C9  UNK     1      21.804 178.997 147.035  1.00  0.00     0.065 C 
BRANCH  13  14
ATOM     14  C10 UNK     1      21.765 179.572 145.617  1.00  0.00     0.234 C 
BRANCH  14  15
ATOM     15  N1  UNK     1      23.132 179.863 145.168  1.00  0.00    -0.079 N 
ATOM     16  C11 UNK     1      23.700 180.996 145.910  1.00  0.00     0.266 C 
ATOM     17  H17 UNK     1      23.721 179.046 145.248  1.00  0.00     0.276 HD
ATOM     18  HN2 UNK     1      23.090 180.120 144.192  1.00  0.00     0.276 HD
ENDBRANCH  14  15
ENDBRANCH  13  14
ENDBRANCH   1  13
BRANCH   1  19
ATOM     19  C12 UNK     1      19.365 178.615 147.265  1.00  0.00    -0.029 A 
ATOM     20  C13 UNK     1      18.947 179.188 148.451  1.00  0.00     0.010 A 
ATOM     21  C14 UNK     1      17.713 179.807 148.522  1.00  0.00     0.001 A 
ATOM     22  C15 UNK     1      16.899 179.855 147.406  1.00  0.00     0.000 A 
ATOM     23  C16 UNK     1      17.318 179.283 146.220  1.00  0.00     0.001 A 
ATOM     24  C17 UNK     1      18.553 178.667 146.148  1.00  0.00     0.010 A 
ENDBRANCH   1  19
TORSDOF 7
ENDMDL
MODEL 6
REMARK VINA RESULT:      -6.7     29.218     30.370
REMARK  7 active torsions:
REMARK  status: ('A' for Active; 'I' for Inactive)
REMARK    1  A    between atoms: C1_2  and  C2_5 
REMARK    2  A    between atoms: C5_8  and  O1_11 
REMARK    3  A    between atoms: O1_11  and  C8_12 
REMARK    4  A    between atoms: C8_12  and  C9_13 
REMARK    5  A    between atoms: C8_12  and  C12_17 
REMARK    6  A    between atoms: C9_13  and  C10_14 
REMARK    7  A    between atoms: C10_14  and  N1_15 
ROOT
ATOM      1  C8  UNK     1      51.363 178.622 165.716  1.00  0.00     0.163 C 
ENDROOT
BRANCH   1   2
ATOM      2  O1  UNK     1      50.484 178.620 164.589  1.00  0.00    -0.341 OA
BRANCH   2   3
ATOM      3  C5  UNK     1      49.526 177.656 164.556  1.00  0.00     0.069 A 
ATOM      4  C4  UNK     1      48.940 177.297 163.351  1.00  0.00     0.037 A 
ATOM      5  C3  UNK     1      47.966 176.318 163.322  1.00  0.00     0.019 A 
ATOM      6  C2  UNK     1      47.577 175.695 164.493  1.00  0.00     0.048 A 
ATOM      7  C7  UNK     1      48.155 176.054 165.697  1.00  0.00     0.019 A 
ATOM      8  C6  UNK     1      49.132 177.029 165.730  1.00  0.00     0.037 A 
BRANCH   6   9
ATOM      9  C1  UNK     1      46.514 174.627 164.458  1.00  0.00     0.417 C 
ATOM     10  F1  UNK     1      45.417 175.085 163.720  1.00  0.00    -0.166 F 
ATOM     11  F2  UNK     1      46.106 174.333 165.765  1.00  0.00    -0.166 F 
ATOM     12  F3  UNK     1      47.029 173.473 163.859  1.00  0.00    -0.166 F 
ENDBRANCH   6   9
ENDBRANCH   2   3
ENDBRANCH   1   2
BRANCH   1  13
ATOM     13  C9  UNK     1      51.263 179.968 166.436  1.00  0.00     0.065 C 
BRANCH  13  14
ATOM     14  C10 UNK     1      51.154 179.734 167.945  1.00  0.00     0.234 C 
BRANCH  14  15
ATOM     15  N1  UNK     1      52.460 179.971 168.573  1.00  0.00    -0.079 N 
ATOM     16  C11 UNK     1      52.862 178.825 169.401  1.00  0.00     0.266 C 
ATOM     17  H17 UNK     1      53.164 180.179 167.879  1.00  0.00     0.276 HD
ATOM     18  HN2 UNK     1      52.373 180.775 169.177  1.00  0.00     0.276 HD
ENDBRANCH  14  15
ENDBRANCH  13  14
ENDBRANCH   1  13
BRANCH   1  19
ATOM     19  C12 UNK     1      52.779 178.406 165.249  1.00  0.00    -0.029 A 
ATOM     20  C13 UNK     1      53.221 179.001 164.083  1.00  0.00     0.010 A 
ATOM     21  C14 UNK     1      54.520 178.801 163.655  1.00  0.00     0.001 A 
ATOM     22  C15 UNK     1      55.377 178.007 164.394  1.00  0.00     0.000 A 
ATOM     23  C16 UNK     1      54.935 177.413 165.560  1.00  0.00     0.001 A 
ATOM     24  C17 UNK     1      53.637 177.615 165.991  1.00  0.00     0.010 A 
ENDBRANCH   1  19
TORSDOF 7
ENDMDL
MODEL 7
REMARK VINA RESULT:      -6.6     30.381     31.746
REMARK  7 active torsions:
REMARK  status: ('A' for Active; 'I' for Inactive)
REMARK    1  A    between atoms: C1_2  and  C2_5 
REMARK    2  A    between atoms: C5_8  and  O1_11 
REMARK    3  A    between atoms: O1_11  and  C8_12 
REMARK    4  A    between atoms: C8_12  and  C9_13 
REMARK    5  A    between atoms: C8_12  and  C12_17 
REMARK    6  A    between atoms: C9_13  and  C10_14 
REMARK    7  A    between atoms: C10_14  and  N1_15 
ROOT
ATOM      1  C8  UNK     1      51.714 179.214 165.524  1.00  0.00     0.163 C 
ENDROOT
BRANCH   1   2
ATOM      2  O1  UNK     1      52.480 178.211 166.195  1.00  0.00    -0.341 OA
BRANCH   2   3
ATOM      3  C5  UNK     1      53.343 177.486 165.436  1.00  0.00     0.069 A 
ATOM      4  C4  UNK     1      54.156 178.120 164.508  1.00  0.00     0.037 A 
ATOM      5  C3  UNK     1      55.031 177.380 163.737  1.00  0.00     0.019 A 
ATOM      6  C2  UNK     1      55.100 176.009 163.893  1.00  0.00     0.048 A 
ATOM      7  C7  UNK     1      54.288 175.372 164.813  1.00  0.00     0.019 A 
ATOM      8  C6  UNK     1      53.414 176.108 165.588  1.00  0.00     0.037 A 
BRANCH   6   9
ATOM      9  C1  UNK     1      56.056 175.203 163.051  1.00  0.00     0.417 C 
ATOM     10  F1  UNK     1      56.508 175.985 161.982  1.00  0.00    -0.166 F 
ATOM     11  F2  UNK     1      55.401 174.070 162.555  1.00  0.00    -0.166 F 
ATOM     12  F3  UNK     1      57.147 174.807 163.831  1.00  0.00    -0.166 F 
ENDBRANCH   6   9
ENDBRANCH   2   3
ENDBRANCH   1   2
BRANCH   1  13
ATOM     13  C9  UNK     1      51.049 180.124 166.559  1.00  0.00     0.065 C 
BRANCH  13  14
ATOM     14  C10 UNK     1      51.215 179.518 167.955  1.00  0.00     0.234 C 
BRANCH  14  15
ATOM     15  N1  UNK     1      52.493 179.954 168.530  1.00  0.00    -0.079 N 
ATOM     16  C11 UNK     1      53.039 178.932 169.434  1.00  0.00     0.266 C 
ATOM     17  H17 UNK     1      53.156 180.187 167.805  1.00  0.00     0.276 HD
ATOM     18  HN2 UNK     1      52.321 180.788 169.072  1.00  0.00     0.276 HD
ENDBRANCH  14  15
ENDBRANCH  13  14
ENDBRANCH   1  13
BRANCH   1  19
ATOM     19  C12 UNK     1      50.654 178.555 164.680  1.00  0.00    -0.029 A 
ATOM     20  C13 UNK     1      49.840 177.581 165.228  1.00  0.00     0.010 A 
ATOM     21  C14 UNK     1      48.869 176.976 164.453  1.00  0.00     0.001 A 
ATOM     22  C15 UNK     1      48.709 177.348 163.131  1.00  0.00     0.000 A 
ATOM     23  C16 UNK     1      49.522 178.322 162.584  1.00  0.00     0.001 A 
ATOM     24  C17 UNK     1      50.491 178.930 163.359  1.00  0.00     0.010 A 
ENDBRANCH   1  19
TORSDOF 7
ENDMDL
MODEL 8
REMARK VINA RESULT:      -6.5     17.261     18.875
REMARK  7 active torsions:
REMARK  status: ('A' for Active; 'I' for Inactive)
REMARK    1  A    between atoms: C1_2  and  C2_5 
REMARK    2  A    between atoms: C5_8  and  O1_11 
REMARK    3  A    between atoms: O1_11  and  C8_12 
REMARK    4  A    between atoms: C8_12  and  C9_13 
REMARK    5  A    between atoms: C8_12  and  C12_17 
REMARK    6  A    between atoms: C9_13  and  C10_14 
REMARK    7  A    between atoms: C10_14  and  N1_15 
ROOT
ATOM      1  C8  UNK     1      32.172 200.442 152.078  1.00  0.00     0.163 C 
ENDROOT
BRANCH   1   2
ATOM      2  O1  UNK     1      31.712 200.250 153.417  1.00  0.00    -0.341 OA
BRANCH   2   3
ATOM      3  C5  UNK     1      31.489 198.969 153.814  1.00  0.00     0.069 A 
ATOM      4  C4  UNK     1      30.324 198.317 153.437  1.00  0.00     0.037 A 
ATOM      5  C3  UNK     1      30.100 197.016 153.843  1.00  0.00     0.019 A 
ATOM      6  C2  UNK     1      31.037 196.363 154.622  1.00  0.00     0.048 A 
ATOM      7  C7  UNK     1      32.197 197.012 155.004  1.00  0.00     0.019 A 
ATOM      8  C6  UNK     1      32.427 198.311 154.597  1.00  0.00     0.037 A 
BRANCH   6   9
ATOM      9  C1  UNK     1      30.790 194.943 155.064  1.00  0.00     0.417 C 
ATOM     10  F1  UNK     1      31.899 194.478 155.778  1.00  0.00    -0.166 F 
ATOM     11  F2  UNK     1      30.586 194.134 153.939  1.00  0.00    -0.166 F 
ATOM     12  F3  UNK     1      29.657 194.898 155.883  1.00  0.00    -0.166 F 
ENDBRANCH   6   9
ENDBRANCH   2   3
ENDBRANCH   1   2
BRANCH   1  13
ATOM     13  C9  UNK     1      33.271 201.507 152.065  1.00  0.00     0.065 C 
BRANCH  13  14
ATOM     14  C10 UNK     1      34.194 201.274 150.866  1.00  0.00     0.234 C 
BRANCH  14  15
ATOM     15  N1  UNK     1      34.814 202.545 150.472  1.00  0.00    -0.079 N 
ATOM     16  C11 UNK     1      34.192 203.675 151.175  1.00  0.00     0.266 C 
ATOM     17  H17 UNK     1      35.811 202.526 150.629  1.00  0.00     0.276 HD
ATOM     18  HN2 UNK     1      34.659 202.672 149.482  1.00  0.00     0.276 HD
ENDBRANCH  14  15
ENDBRANCH  13  14
ENDBRANCH   1  13
BRANCH   1  19
ATOM     19  C12 UNK     1      31.024 200.895 151.214  1.00  0.00    -0.029 A 
ATOM     20  C13 UNK     1      30.435 202.126 151.435  1.00  0.00     0.010 A 
ATOM     21  C14 UNK     1      29.381 202.539 150.642  1.00  0.00     0.001 A 
ATOM     22  C15 UNK     1      28.917 201.723 149.627  1.00  0.00     0.000 A 
ATOM     23  C16 UNK     1      29.507 200.493 149.406  1.00  0.00     0.001 A 
ATOM     24  C17 UNK     1      30.563 200.081 150.196  1.00  0.00     0.010 A 
ENDBRANCH   1  19
TORSDOF 7
ENDMDL
MODEL 9
REMARK VINA RESULT:      -6.5      6.340      8.361
REMARK  7 active torsions:
REMARK  status: ('A' for Active; 'I' for Inactive)
REMARK    1  A    between atoms: C1_2  and  C2_5 
REMARK    2  A    between atoms: C5_8  and  O1_11 
REMARK    3  A    between atoms: O1_11  and  C8_12 
REMARK    4  A    between atoms: C8_12  and  C9_13 
REMARK    5  A    between atoms: C8_12  and  C12_17 
REMARK    6  A    between atoms: C9_13  and  C10_14 
REMARK    7  A    between atoms: C10_14  and  N1_15 
ROOT
ATOM      1  C8  UNK     1      35.700 182.959 142.762  1.00  0.00     0.163 C 
ENDROOT
BRANCH   1   2
ATOM      2  O1  UNK     1      36.545 182.242 141.860  1.00  0.00    -0.341 OA
BRANCH   2   3
ATOM      3  C5  UNK     1      37.858 182.591 141.836  1.00  0.00     0.069 A 
ATOM      4  C4  UNK     1      38.838 181.612 141.768  1.00  0.00     0.037 A 
ATOM      5  C3  UNK     1      40.172 181.971 141.745  1.00  0.00     0.019 A 
ATOM      6  C2  UNK     1      40.529 183.305 141.789  1.00  0.00     0.048 A 
ATOM      7  C7  UNK     1      39.556 184.284 141.863  1.00  0.00     0.019 A 
ATOM      8  C6  UNK     1      38.221 183.930 141.882  1.00  0.00     0.037 A 
BRANCH   6   9
ATOM      9  C1  UNK     1      41.986 183.695 141.765  1.00  0.00     0.417 C 
ATOM     10  F1  UNK     1      42.432 183.910 143.073  1.00  0.00    -0.166 F 
ATOM     11  F2  UNK     1      42.142 184.870 141.019  1.00  0.00    -0.166 F 
ATOM     12  F3  UNK     1      42.735 182.668 141.180  1.00  0.00    -0.166 F 
ENDBRANCH   6   9
ENDBRANCH   2   3
ENDBRANCH   1   2
BRANCH   1  13
ATOM     13  C9  UNK     1      35.565 182.174 144.068  1.00  0.00     0.065 C 
BRANCH  13  14
ATOM     14  C10 UNK     1      36.955 181.904 144.648  1.00  0.00     0.234 C 
BRANCH  14  15
ATOM     15  N1  UNK     1      37.204 182.820 145.768  1.00  0.00    -0.079 N 
ATOM     16  C11 UNK     1      38.455 183.565 145.572  1.00  0.00     0.266 C 
ATOM     17  H17 UNK     1      36.426 183.449 145.902  1.00  0.00     0.276 HD
ATOM     18  HN2 UNK     1      37.302 182.265 146.607  1.00  0.00     0.276 HD
ENDBRANCH  14  15
ENDBRANCH  13  14
ENDBRANCH   1  13
BRANCH   1  19
ATOM     19  C12 UNK     1      34.339 183.136 142.140  1.00  0.00    -0.029 A 
ATOM     20  C13 UNK     1      34.024 182.480 140.965  1.00  0.00     0.010 A 
ATOM     21  C14 UNK     1      32.776 182.643 140.394  1.00  0.00     0.001 A 
ATOM     22  C15 UNK     1      31.842 183.462 141.000  1.00  0.00     0.000 A 
ATOM     23  C16 UNK     1      32.155 184.118 142.175  1.00  0.00     0.001 A 
ATOM     24  C17 UNK     1      33.402 183.952 142.748  1.00  0.00     0.010 A 
ENDBRANCH   1  19
TORSDOF 7
ENDMDL
MODEL 10
REMARK VINA RESULT:      -6.5     30.516     32.479
REMARK  7 active torsions:
REMARK  status: ('A' for Active; 'I' for Inactive)
REMARK    1  A    between atoms: C1_2  and  C2_5 
REMARK    2  A    between atoms: C5_8  and  O1_11 
REMARK    3  A    between atoms: O1_11  and  C8_12 
REMARK    4  A    between atoms: C8_12  and  C9_13 
REMARK    5  A    between atoms: C8_12  and  C12_17 
REMARK    6  A    between atoms: C9_13  and  C10_14 
REMARK    7  A    between atoms: C10_14  and  N1_15 
ROOT
ATOM      1  C8  UNK     1      64.445 184.300 141.573  1.00  0.00     0.163 C 
ENDROOT
BRANCH   1   2
ATOM      2  O1  UNK     1      65.338 185.382 141.302  1.00  0.00    -0.341 OA
BRANCH   2   3
ATOM      3  C5  UNK     1      65.420 186.362 142.241  1.00  0.00     0.069 A 
ATOM      4  C4  UNK     1      65.807 186.053 143.537  1.00  0.00     0.037 A 
ATOM      5  C3  UNK     1      65.888 187.051 144.489  1.00  0.00     0.019 A 
ATOM      6  C2  UNK     1      65.588 188.356 144.150  1.00  0.00     0.048 A 
ATOM      7  C7  UNK     1      65.197 188.667 142.860  1.00  0.00     0.019 A 
ATOM      8  C6  UNK     1      65.118 187.674 141.905  1.00  0.00     0.037 A 
BRANCH   6   9
ATOM      9  C1  UNK     1      65.678 189.443 145.191  1.00  0.00     0.417 C 
ATOM     10  F1  UNK     1      66.091 188.890 146.407  1.00  0.00    -0.166 F 
ATOM     11  F2  UNK     1      64.422 190.040 145.352  1.00  0.00    -0.166 F 
ATOM     12  F3  UNK     1      66.603 190.408 144.780  1.00  0.00    -0.166 F 
ENDBRANCH   6   9
ENDBRANCH   2   3
ENDBRANCH   1   2
BRANCH   1  13
ATOM     13  C9  UNK     1      65.231 182.988 141.610  1.00  0.00     0.065 C 
BRANCH  13  14
ATOM     14  C10 UNK     1      65.108 182.358 143.000  1.00  0.00     0.234 C 
BRANCH  14  15
ATOM     15  N1  UNK     1      64.125 181.269 142.959  1.00  0.00    -0.079 N 
ATOM     16  C11 UNK     1      62.925 181.613 143.732  1.00  0.00     0.266 C 
ATOM     17  H17 UNK     1      63.886 181.032 142.006  1.00  0.00     0.276 HD
ATOM     18  HN2 UNK     1      64.546 180.455 143.384  1.00  0.00     0.276 HD
ENDBRANCH  14  15
ENDBRANCH  13  14
ENDBRANCH   1  13
BRANCH   1  19
ATOM     19  C12 UNK     1      63.400 184.228 140.489  1.00  0.00    -0.029 A 
ATOM     20  C13 UNK     1      63.107 183.017 139.890  1.00  0.00     0.010 A 
ATOM     21  C14 UNK     1      62.150 182.953 138.895  1.00  0.00     0.001 A 
ATOM     22  C15 UNK     1      61.485 184.099 138.500  1.00  0.00     0.000 A 
ATOM     23  C16 UNK     1      61.777 185.309 139.100  1.00  0.00     0.001 A 
ATOM     24  C17 UNK     1      62.732 185.373 140.097  1.00  0.00     0.010 A 
ENDBRANCH   1  19
TORSDOF 7
ENDMDL
