@<TRIPOS>MOLECULE
ZINC000001530638
41    42    1     0     0
SMALL
USER_CHARGES
@<TRIPOS>ATOM
1      C1      0.0105    1.6062   -0.7407 C.3      1 ZINC000001530638   -0.0500
2      N2      0.0258    0.1615   -0.4751 N.4      1 ZINC000001530638   -0.5100
3      H3      0.4850   -0.3156   -1.2364 H        1 ZINC000001530638    0.4300
4      H4      0.5246   -0.0173    0.3836 H        1 ZINC000001530638    0.4300
5      C5     -1.3536   -0.3283   -0.3511 C.3      1 ZINC000001530638   -0.0100
6      C6     -1.3376   -1.8330   -0.0745 C.3      1 ZINC000001530638   -0.1400
7      C7     -2.7743   -2.3431    0.0546 C.3      1 ZINC000001530638    0.1400
8      H8     -3.2974   -1.7664    0.8174 H        1 ZINC000001530638    0.0900
9      O9     -3.4463   -2.1961   -1.1979 O.3      1 ZINC000001530638   -0.3000
10     C10    -4.8018   -2.1048   -1.1639 C.ar     1 ZINC000001530638    0.1500
11     C11    -5.5107   -1.8524   -2.3294 C.ar     1 ZINC000001530638   -0.1500
12     C12    -6.8886   -1.7606   -2.2922 C.ar     1 ZINC000001530638   -0.0300
13     C13    -7.5612   -1.9195   -1.0947 C.ar     1 ZINC000001530638   -0.2100
14     C14    -9.0643   -1.8183   -1.0569 C.3      1 ZINC000001530638    0.5100
15     F15    -9.6223   -3.0834   -1.2694 F        1 ZINC000001530638   -0.1700
16     F16    -9.4679   -1.3344    0.1922 F        1 ZINC000001530638   -0.1800
17     F17    -9.4980   -0.9430   -2.0584 F        1 ZINC000001530638   -0.1800
18     C18    -6.8570   -2.1715    0.0682 C.ar     1 ZINC000001530638   -0.0300
19     C19    -5.4794   -2.2695    0.0355 C.ar     1 ZINC000001530638   -0.2000
20     C20    -2.7574   -3.7977    0.4480 C.ar     1 ZINC000001530638   -0.1400
21     C21    -2.5293   -4.7697   -0.5081 C.ar     1 ZINC000001530638   -0.0900
22     C22    -2.5138   -6.1040   -0.1473 C.ar     1 ZINC000001530638   -0.1200
23     C23    -2.7261   -6.4664    1.1697 C.ar     1 ZINC000001530638   -0.1000
24     C24    -2.9534   -5.4943    2.1260 C.ar     1 ZINC000001530638   -0.1200
25     C25    -2.9646   -4.1598    1.7659 C.ar     1 ZINC000001530638   -0.1100
26     H26     1.0340    1.9696   -0.8327 H        1 ZINC000001530638    0.1300
27     H27    -0.5284    1.7994   -1.6683 H        1 ZINC000001530638    0.1200
28     H28    -0.4856    2.1216    0.0817 H        1 ZINC000001530638    0.1200
29     H29    -1.8496    0.1871    0.4713 H        1 ZINC000001530638    0.1300
30     H30    -1.8925   -0.1351   -1.2787 H        1 ZINC000001530638    0.1400
31     H31    -0.8416   -2.3484   -0.8969 H        1 ZINC000001530638    0.1000
32     H32    -0.7988   -2.0261    0.8531 H        1 ZINC000001530638    0.1100
33     H33    -4.9858   -1.7275   -3.2649 H        1 ZINC000001530638    0.1400
34     H34    -7.4409   -1.5641   -3.1993 H        1 ZINC000001530638    0.1500
35     H35    -7.3846   -2.2956    1.0024 H        1 ZINC000001530638    0.1400
36     H36    -4.9298   -2.4664    0.9441 H        1 ZINC000001530638    0.1400
37     H37    -2.3634   -4.4866   -1.5371 H        1 ZINC000001530638    0.1300
38     H38    -2.3362   -6.8634   -0.8944 H        1 ZINC000001530638    0.1300
39     H39    -2.7147   -7.5089    1.4515 H        1 ZINC000001530638    0.1300
40     H40    -3.1195   -5.7775    3.1549 H        1 ZINC000001530638    0.1300
41     H41    -3.1421   -3.4003    2.5130 H        1 ZINC000001530638    0.1200
@<TRIPOS>BOND
1     1     2     1
2     1     26    1
3     1     27    1
4     1     28    1
5     2     3     1
6     2     4     1
7     2     5     1
8     5     6     1
9     5     29    1
10    5     30    1
11    6     7     1
12    6     31    1
13    6     32    1
14    7     8     1
15    7     9     1
16    7     20    1
17    9     10    1
18    10    19    ar
19    10    11    ar
20    11    12    ar
21    11    33    1
22    12    13    ar
23    12    34    1
24    13    14    1
25    13    18    ar
26    14    15    1
27    14    16    1
28    14    17    1
29    18    19    ar
30    18    35    1
31    19    36    1
32    20    25    ar
33    20    21    ar
34    21    22    ar
35    21    37    1
36    22    23    ar
37    22    38    1
38    23    24    ar
39    23    39    1
40    24    25    ar
41    24    40    1
42    25    41    1
@<TRIPOS>SUBSTRUCTURE
1   ZINC000001530638 1     RESIDUE    1   A     ZIN   1
