RFX
  -OEChem-08112316503D

 40 41  0     1  0  0  0  0  0999 V2000
   -5.0060    0.4630   -0.1480 F   0  0  0  0  0  0  0  0  0  0  0  0
   -4.3820   -0.7280    0.2380 C   0  0  0  0  0  0  0  0  0  0  0  0
   -4.5820   -0.9370    1.6070 F   0  0  0  0  0  0  0  0  0  0  0  0
   -4.9290   -1.7950   -0.4820 F   0  0  0  0  0  0  0  0  0  0  0  0
   -2.9040   -0.6350   -0.0450 C   0  0  0  0  0  0  0  0  0  0  0  0
   -2.0460   -0.1430    0.9210 C   0  0  0  0  0  0  0  0  0  0  0  0
   -0.6920   -0.0570    0.6640 C   0  0  0  0  0  0  0  0  0  0  0  0
   -0.1920   -0.4650   -0.5640 C   0  0  0  0  0  0  0  0  0  0  0  0
   -1.0560   -0.9590   -1.5320 C   0  0  0  0  0  0  0  0  0  0  0  0
   -2.4090   -1.0480   -1.2680 C   0  0  0  0  0  0  0  0  0  0  0  0
    1.1400   -0.3820   -0.8200 O   0  0  0  0  0  0  0  0  0  0  0  0
    1.9610    0.1910    0.2000 C   0  0  2  0  0  0  0  0  0  0  0  0
    2.1420    1.6860   -0.0710 C   0  0  0  0  0  0  0  0  0  0  0  0
    0.7910    2.3940    0.0520 C   0  0  0  0  0  0  0  0  0  0  0  0
    0.9650    3.8290   -0.2080 N   0  0  0  0  0  0  0  0  0  0  0  0
   -0.3140    4.5430   -0.0980 C   0  0  0  0  0  0  0  0  0  0  0  0
    3.3070   -0.4860    0.2000 C   0  0  0  0  0  0  0  0  0  0  0  0
    3.9200   -0.8070   -0.9970 C   0  0  0  0  0  0  0  0  0  0  0  0
    5.1540   -1.4280   -0.9970 C   0  0  0  0  0  0  0  0  0  0  0  0
    5.7770   -1.7280    0.2000 C   0  0  0  0  0  0  0  0  0  0  0  0
    5.1650   -1.4060    1.3970 C   0  0  0  0  0  0  0  0  0  0  0  0
    3.9320   -0.7810    1.3970 C   0  0  0  0  0  0  0  0  0  0  0  0
   -2.4350    0.1750    1.8770 H   0  0  0  0  0  0  0  0  0  0  0  0
   -0.0220    0.3280    1.4190 H   0  0  0  0  0  0  0  0  0  0  0  0
   -0.6700   -1.2770   -2.4890 H   0  0  0  0  0  0  0  0  0  0  0  0
   -3.0810   -1.4360   -2.0190 H   0  0  0  0  0  0  0  0  0  0  0  0
    1.4850    0.0530    1.1700 H   0  0  0  0  0  0  0  0  0  0  0  0
    2.8390    2.1050    0.6550 H   0  0  0  0  0  0  0  0  0  0  0  0
    2.5360    1.8280   -1.0770 H   0  0  0  0  0  0  0  0  0  0  0  0
    0.0940    1.9750   -0.6740 H   0  0  0  0  0  0  0  0  0  0  0  0
    0.3970    2.2520    1.0590 H   0  0  0  0  0  0  0  0  0  0  0  0
   -0.7160    4.4160    0.9070 H   0  0  0  0  0  0  0  0  0  0  0  0
   -0.1570    5.6030   -0.2950 H   0  0  0  0  0  0  0  0  0  0  0  0
    3.4330   -0.5720   -1.9330 H   0  0  0  0  0  0  0  0  0  0  0  0
    5.6330   -1.6790   -1.9330 H   0  0  0  0  0  0  0  0  0  0  0  0
    6.7420   -2.2140    0.2000 H   0  0  0  0  0  0  0  0  0  0  0  0
    5.6520   -1.6410    2.3320 H   0  0  0  0  0  0  0  0  0  0  0  0
    3.4560   -0.5270    2.3320 H   0  0  0  0  0  0  0  0  0  0  0  0
    1.6560    4.2280    0.4110 H   0  0  0  0  0  0  0  0  0  0  0  0
   -1.0190    4.1390   -0.8250 H   0  0  0  0  0  0  0  0  0  0  0  0
  1  2  1  0  0  0  0
  2  3  1  0  0  0  0
  2  5  1  0  0  0  0
  2  4  1  0  0  0  0
  5  6  1  0  0  0  0
  6  7  2  0  0  0  0
  6 23  1  0  0  0  0
  7 24  1  0  0  0  0
  7  8  1  0  0  0  0
  8 11  1  0  0  0  0
  8  9  2  0  0  0  0
  9 25  1  0  0  0  0
  5 10  2  0  0  0  0
  9 10  1  0  0  0  0
 10 26  1  0  0  0  0
 11 12  1  0  0  0  0
 12 17  1  0  0  0  0
 12 13  1  0  0  0  0
 12 27  1  0  0  0  0
 13 28  1  0  0  0  0
 13 29  1  0  0  0  0
 13 14  1  0  0  0  0
 14 15  1  0  0  0  0
 14 30  1  0  0  0  0
 14 31  1  0  0  0  0
 15 16  1  0  0  0  0
 16 32  1  0  0  0  0
 16 33  1  0  0  0  0
 17 22  1  0  0  0  0
 17 18  2  0  0  0  0
 18 19  1  0  0  0  0
 18 34  1  0  0  0  0
 19 20  2  0  0  0  0
 19 35  1  0  0  0  0
 20 21  1  0  0  0  0
 20 36  1  0  0  0  0
 21 37  1  0  0  0  0
 21 22  2  0  0  0  0
 22 38  1  0  0  0  0
 15 39  1  0  0  0  0
 16 40  1  0  0  0  0
M  END
> <OPENEYE_ISO_SMILES>
CNCC[C@H](c1ccccc1)Oc2ccc(cc2)C(F)(F)F

> <OPENEYE_INCHI>
InChI=1S/C17H18F3NO/c1-21-12-11-16(13-5-3-2-4-6-13)22-15-9-7-14(8-10-15)17(18,19)20/h2-10,16,21H,11-12H2,1H3/t16-/m1/s1

> <OPENEYE_INCHIKEY>
RTHCYVBBDHJXIQ-MRXNPFEDSA-N

> <FORMULA>
C17H18F3NO

$$$$
