MODEL 1
REMARK VINA RESULT:      -8.9      0.000      0.000
REMARK  7 active torsions:
REMARK  status: ('A' for Active; 'I' for Inactive)
REMARK    1  A    between atoms: N2_2  and  C5_5 
REMARK    2  A    between atoms: C5_5  and  C6_6 
REMARK    3  A    between atoms: C6_6  and  C7_7 
REMARK    4  A    between atoms: C7_7  and  O9_8 
REMARK    5  A    between atoms: C7_7  and  C20_19 
REMARK    6  A    between atoms: O9_8  and  C10_9 
REMARK    7  A    between atoms: C13_12  and  C14_13 
ROOT
ATOM      1  C7  ZIN AC000      33.880 184.093 141.734  0.00  0.00     0.163 C 
ENDROOT
BRANCH   1   2
ATOM      2  C6  ZIN AC000      34.994 184.973 141.163  0.00  0.00     0.065 C 
BRANCH   2   3
ATOM      3  C5  ZIN AC000      34.440 186.369 140.871  0.00  0.00     0.234 C 
BRANCH   3   4
ATOM      4  N2  ZIN AC000      35.072 186.901 139.655  0.00  0.00    -0.079 N 
ATOM      5  C1  ZIN AC000      35.115 185.854 138.627  0.00  0.00     0.266 C 
ATOM      6  H3  ZIN AC000      36.011 187.202 139.869  0.00  0.00     0.276 HD
ATOM      7  H4  ZIN AC000      34.537 187.687 139.314  0.00  0.00     0.276 HD
ENDBRANCH   3   4
ENDBRANCH   2   3
ENDBRANCH   1   2
BRANCH   1   8
ATOM      8  O9  ZIN AC000      32.619 184.737 141.544  0.00  0.00    -0.341 OA
BRANCH   8   9
ATOM      9  C10 ZIN AC000      31.742 184.697 142.582  0.00  0.00     0.069 A 
ATOM     10  C19 ZIN AC000      30.561 183.980 142.467  0.00  0.00     0.037 A 
ATOM     11  C18 ZIN AC000      29.674 183.937 143.525  0.00  0.00     0.019 A 
ATOM     12  C13 ZIN AC000      29.959 184.616 144.695  0.00  0.00     0.048 A 
ATOM     13  C12 ZIN AC000      31.133 185.336 144.811  0.00  0.00     0.019 A 
ATOM     14  C11 ZIN AC000      32.026 185.377 143.757  0.00  0.00     0.037 A 
BRANCH  12  15
ATOM     15  C14 ZIN AC000      28.988 184.571 145.847  0.00  0.00     0.417 C 
ATOM     16  F15 ZIN AC000      28.118 185.662 145.765  0.00  0.00    -0.166 F 
ATOM     17  F16 ZIN AC000      28.252 183.382 145.790  0.00  0.00    -0.166 F 
ATOM     18  F17 ZIN AC000      29.693 184.625 147.054  0.00  0.00    -0.166 F 
ENDBRANCH  12  15
ENDBRANCH   8   9
ENDBRANCH   1   8
BRANCH   1  19
ATOM     19  C20 ZIN AC000      33.877 182.763 141.024  0.00  0.00    -0.029 A 
ATOM     20  C25 ZIN AC000      34.743 181.763 141.427  0.00  0.00     0.010 A 
ATOM     21  C24 ZIN AC000      34.737 180.543 140.778  0.00  0.00     0.001 A 
ATOM     22  C23 ZIN AC000      33.872 180.324 139.723  0.00  0.00     0.000 A 
ATOM     23  C22 ZIN AC000      33.010 181.326 139.317  0.00  0.00     0.001 A 
ATOM     24  C21 ZIN AC000      33.013 182.545 139.968  0.00  0.00     0.010 A 
ENDBRANCH   1  19
TORSDOF 7
ENDMDL
MODEL 2
REMARK VINA RESULT:      -8.5      1.471      2.167
REMARK  7 active torsions:
REMARK  status: ('A' for Active; 'I' for Inactive)
REMARK    1  A    between atoms: N2_2  and  C5_5 
REMARK    2  A    between atoms: C5_5  and  C6_6 
REMARK    3  A    between atoms: C6_6  and  C7_7 
REMARK    4  A    between atoms: C7_7  and  O9_8 
REMARK    5  A    between atoms: C7_7  and  C20_19 
REMARK    6  A    between atoms: O9_8  and  C10_9 
REMARK    7  A    between atoms: C13_12  and  C14_13 
ROOT
ATOM      1  C7  ZIN AC000      34.262 183.968 141.769  0.00  0.00     0.163 C 
ENDROOT
BRANCH   1   2
ATOM      2  C6  ZIN AC000      35.565 184.646 141.345  0.00  0.00     0.065 C 
BRANCH   2   3
ATOM      3  C5  ZIN AC000      36.750 183.926 141.994  0.00  0.00     0.234 C 
BRANCH   3   4
ATOM      4  N2  ZIN AC000      38.003 184.408 141.397  0.00  0.00    -0.079 N 
ATOM      5  C1  ZIN AC000      39.135 183.675 141.976  0.00  0.00     0.266 C 
ATOM      6  H3  ZIN AC000      38.108 185.394 141.586  0.00  0.00     0.276 HD
ATOM      7  H4  ZIN AC000      37.979 184.258 140.399  0.00  0.00     0.276 HD
ENDBRANCH   3   4
ENDBRANCH   2   3
ENDBRANCH   1   2
BRANCH   1   8
ATOM      8  O9  ZIN AC000      33.186 184.904 141.677  0.00  0.00    -0.341 OA
BRANCH   8   9
ATOM      9  C10 ZIN AC000      32.256 184.875 142.668  0.00  0.00     0.069 A 
ATOM     10  C19 ZIN AC000      31.048 184.223 142.469  0.00  0.00     0.037 A 
ATOM     11  C18 ZIN AC000      30.107 184.192 143.480  0.00  0.00     0.019 A 
ATOM     12  C13 ZIN AC000      30.364 184.818 144.685  0.00  0.00     0.048 A 
ATOM     13  C12 ZIN AC000      31.565 185.473 144.884  0.00  0.00     0.019 A 
ATOM     14  C11 ZIN AC000      32.512 185.502 143.879  0.00  0.00     0.037 A 
BRANCH  12  15
ATOM     15  C14 ZIN AC000      29.334 184.785 145.785  0.00  0.00     0.417 C 
ATOM     16  F15 ZIN AC000      29.949 185.073 147.008  0.00  0.00    -0.166 F 
ATOM     17  F16 ZIN AC000      28.344 185.739 145.525  0.00  0.00    -0.166 F 
ATOM     18  F17 ZIN AC000      28.753 183.514 145.843  0.00  0.00    -0.166 F 
ENDBRANCH  12  15
ENDBRANCH   8   9
ENDBRANCH   1   8
BRANCH   1  19
ATOM     19  C20 ZIN AC000      33.987 182.795 140.863  0.00  0.00    -0.029 A 
ATOM     20  C25 ZIN AC000      33.260 182.976 139.701  0.00  0.00     0.010 A 
ATOM     21  C24 ZIN AC000      33.011 181.902 138.868  0.00  0.00     0.001 A 
ATOM     22  C23 ZIN AC000      33.484 180.646 139.199  0.00  0.00     0.000 A 
ATOM     23  C22 ZIN AC000      34.208 180.465 140.362  0.00  0.00     0.001 A 
ATOM     24  C21 ZIN AC000      34.459 181.539 141.194  0.00  0.00     0.010 A 
ENDBRANCH   1  19
TORSDOF 7
ENDMDL
MODEL 3
REMARK VINA RESULT:      -7.8      4.977      7.378
REMARK  7 active torsions:
REMARK  status: ('A' for Active; 'I' for Inactive)
REMARK    1  A    between atoms: N2_2  and  C5_5 
REMARK    2  A    between atoms: C5_5  and  C6_6 
REMARK    3  A    between atoms: C6_6  and  C7_7 
REMARK    4  A    between atoms: C7_7  and  O9_8 
REMARK    5  A    between atoms: C7_7  and  C20_19 
REMARK    6  A    between atoms: O9_8  and  C10_9 
REMARK    7  A    between atoms: C13_12  and  C14_13 
ROOT
ATOM      1  C7  ZIN AC000      33.516 182.850 141.463  0.00  0.00     0.163 C 
ENDROOT
BRANCH   1   2
ATOM      2  C6  ZIN AC000      33.064 183.036 140.014  0.00  0.00     0.065 C 
BRANCH   2   3
ATOM      3  C5  ZIN AC000      32.878 181.666 139.358  0.00  0.00     0.234 C 
BRANCH   3   4
ATOM      4  N2  ZIN AC000      33.453 181.688 138.006  0.00  0.00    -0.079 N 
ATOM      5  C1  ZIN AC000      34.843 181.218 138.057  0.00  0.00     0.266 C 
ATOM      6  H3  ZIN AC000      33.429 182.630 137.646  0.00  0.00     0.276 HD
ATOM      7  H4  ZIN AC000      32.915 181.084 137.402  0.00  0.00     0.276 HD
ENDBRANCH   3   4
ENDBRANCH   2   3
ENDBRANCH   1   2
BRANCH   1   8
ATOM      8  O9  ZIN AC000      34.883 183.248 141.591  0.00  0.00    -0.341 OA
BRANCH   8   9
ATOM      9  C10 ZIN AC000      35.804 182.257 141.725  0.00  0.00     0.069 A 
ATOM     10  C19 ZIN AC000      35.400 180.974 142.061  0.00  0.00     0.037 A 
ATOM     11  C18 ZIN AC000      36.337 179.967 142.192  0.00  0.00     0.019 A 
ATOM     12  C13 ZIN AC000      37.679 180.241 141.998  0.00  0.00     0.048 A 
ATOM     13  C12 ZIN AC000      38.085 181.520 141.668  0.00  0.00     0.019 A 
ATOM     14  C11 ZIN AC000      37.150 182.529 141.530  0.00  0.00     0.037 A 
BRANCH  12  15
ATOM     15  C14 ZIN AC000      38.699 179.143 142.145  0.00  0.00     0.417 C 
ATOM     16  F15 ZIN AC000      39.812 179.431 141.348  0.00  0.00    -0.166 F 
ATOM     17  F16 ZIN AC000      39.097 179.051 143.484  0.00  0.00    -0.166 F 
ATOM     18  F17 ZIN AC000      38.139 177.927 141.741  0.00  0.00    -0.166 F 
ENDBRANCH  12  15
ENDBRANCH   8   9
ENDBRANCH   1   8
BRANCH   1  19
ATOM     19  C20 ZIN AC000      32.660 183.697 142.369  0.00  0.00    -0.029 A 
ATOM     20  C25 ZIN AC000      31.284 183.681 142.233  0.00  0.00     0.010 A 
ATOM     21  C24 ZIN AC000      30.499 184.455 143.066  0.00  0.00     0.001 A 
ATOM     22  C23 ZIN AC000      31.089 185.251 144.030  0.00  0.00     0.000 A 
ATOM     23  C22 ZIN AC000      32.464 185.270 144.163  0.00  0.00     0.001 A 
ATOM     24  C21 ZIN AC000      33.250 184.494 143.333  0.00  0.00     0.010 A 
ENDBRANCH   1  19
TORSDOF 7
ENDMDL
MODEL 4
REMARK VINA RESULT:      -7.8      7.528      8.639
REMARK  7 active torsions:
REMARK  status: ('A' for Active; 'I' for Inactive)
REMARK    1  A    between atoms: N2_2  and  C5_5 
REMARK    2  A    between atoms: C5_5  and  C6_6 
REMARK    3  A    between atoms: C6_6  and  C7_7 
REMARK    4  A    between atoms: C7_7  and  O9_8 
REMARK    5  A    between atoms: C7_7  and  C20_19 
REMARK    6  A    between atoms: O9_8  and  C10_9 
REMARK    7  A    between atoms: C13_12  and  C14_13 
ROOT
ATOM      1  C7  ZIN AC000      41.551 181.637 141.931  0.00  0.00     0.163 C 
ENDROOT
BRANCH   1   2
ATOM      2  C6  ZIN AC000      42.510 181.995 140.795  0.00  0.00     0.065 C 
BRANCH   2   3
ATOM      3  C5  ZIN AC000      41.968 183.206 140.032  0.00  0.00     0.234 C 
BRANCH   3   4
ATOM      4  N2  ZIN AC000      42.489 184.440 140.637  0.00  0.00    -0.079 N 
ATOM      5  C1  ZIN AC000      41.564 185.547 140.365  0.00  0.00     0.266 C 
ATOM      6  H3  ZIN AC000      43.393 184.651 140.242  0.00  0.00     0.276 HD
ATOM      7  H4  ZIN AC000      42.579 184.314 141.634  0.00  0.00     0.276 HD
ENDBRANCH   3   4
ENDBRANCH   2   3
ENDBRANCH   1   2
BRANCH   1   8
ATOM      8  O9  ZIN AC000      40.458 182.557 141.939  0.00  0.00    -0.341 OA
BRANCH   8   9
ATOM      9  C10 ZIN AC000      40.177 183.171 143.120  0.00  0.00     0.069 A 
ATOM     10  C19 ZIN AC000      38.862 183.442 143.466  0.00  0.00     0.037 A 
ATOM     11  C18 ZIN AC000      38.579 184.061 144.668  0.00  0.00     0.019 A 
ATOM     12  C13 ZIN AC000      39.606 184.419 145.521  0.00  0.00     0.048 A 
ATOM     13  C12 ZIN AC000      40.918 184.154 145.177  0.00  0.00     0.019 A 
ATOM     14  C11 ZIN AC000      41.206 183.530 143.978  0.00  0.00     0.037 A 
BRANCH  12  15
ATOM     15  C14 ZIN AC000      39.295 185.097 146.830  0.00  0.00     0.417 C 
ATOM     16  F15 ZIN AC000      38.501 186.224 146.593  0.00  0.00    -0.166 F 
ATOM     17  F16 ZIN AC000      38.607 184.210 147.665  0.00  0.00    -0.166 F 
ATOM     18  F17 ZIN AC000      40.487 185.488 147.449  0.00  0.00    -0.166 F 
ENDBRANCH  12  15
ENDBRANCH   8   9
ENDBRANCH   1   8
BRANCH   1  19
ATOM     19  C20 ZIN AC000      41.028 180.238 141.724  0.00  0.00    -0.029 A 
ATOM     20  C25 ZIN AC000      41.843 179.272 141.163  0.00  0.00     0.010 A 
ATOM     21  C24 ZIN AC000      41.365 177.989 140.977  0.00  0.00     0.001 A 
ATOM     22  C23 ZIN AC000      40.071 177.673 141.344  0.00  0.00     0.000 A 
ATOM     23  C22 ZIN AC000      39.255 178.640 141.901  0.00  0.00     0.001 A 
ATOM     24  C21 ZIN AC000      39.734 179.923 142.091  0.00  0.00     0.010 A 
ENDBRANCH   1  19
TORSDOF 7
ENDMDL
MODEL 5
REMARK VINA RESULT:      -7.5      4.293      5.605
REMARK  7 active torsions:
REMARK  status: ('A' for Active; 'I' for Inactive)
REMARK    1  A    between atoms: N2_2  and  C5_5 
REMARK    2  A    between atoms: C5_5  and  C6_6 
REMARK    3  A    between atoms: C6_6  and  C7_7 
REMARK    4  A    between atoms: C7_7  and  O9_8 
REMARK    5  A    between atoms: C7_7  and  C20_19 
REMARK    6  A    between atoms: O9_8  and  C10_9 
REMARK    7  A    between atoms: C13_12  and  C14_13 
ROOT
ATOM      1  C7  ZIN AC000      38.605 181.923 142.194  0.00  0.00     0.163 C 
ENDROOT
BRANCH   1   2
ATOM      2  C6  ZIN AC000      39.788 182.847 141.903  0.00  0.00     0.065 C 
BRANCH   2   3
ATOM      3  C5  ZIN AC000      39.778 184.016 142.890  0.00  0.00     0.234 C 
BRANCH   3   4
ATOM      4  N2  ZIN AC000      39.506 185.266 142.167  0.00  0.00    -0.079 N 
ATOM      5  C1  ZIN AC000      40.240 185.265 140.895  0.00  0.00     0.266 C 
ATOM      6  H3  ZIN AC000      39.804 186.050 142.728  0.00  0.00     0.276 HD
ATOM      7  H4  ZIN AC000      38.516 185.340 141.984  0.00  0.00     0.276 HD
ENDBRANCH   3   4
ENDBRANCH   2   3
ENDBRANCH   1   2
BRANCH   1   8
ATOM      8  O9  ZIN AC000      37.531 182.228 141.301  0.00  0.00    -0.341 OA
BRANCH   8   9
ATOM      9  C10 ZIN AC000      36.471 182.903 141.820  0.00  0.00     0.069 A 
ATOM     10  C19 ZIN AC000      35.874 182.464 142.991  0.00  0.00     0.037 A 
ATOM     11  C18 ZIN AC000      34.799 183.154 143.518  0.00  0.00     0.019 A 
ATOM     12  C13 ZIN AC000      34.313 184.277 142.873  0.00  0.00     0.048 A 
ATOM     13  C12 ZIN AC000      34.904 184.714 141.703  0.00  0.00     0.019 A 
ATOM     14  C11 ZIN AC000      35.982 184.030 141.175  0.00  0.00     0.037 A 
BRANCH  12  15
ATOM     15  C14 ZIN AC000      33.139 185.026 143.448  0.00  0.00     0.417 C 
ATOM     16  F15 ZIN AC000      32.761 184.439 144.660  0.00  0.00    -0.166 F 
ATOM     17  F16 ZIN AC000      33.498 186.360 143.669  0.00  0.00    -0.166 F 
ATOM     18  F17 ZIN AC000      32.068 184.974 142.551  0.00  0.00    -0.166 F 
ENDBRANCH  12  15
ENDBRANCH   8   9
ENDBRANCH   1   8
BRANCH   1  19
ATOM     19  C20 ZIN AC000      39.027 180.489 142.000  0.00  0.00    -0.029 A 
ATOM     20  C25 ZIN AC000      40.331 180.195 141.647  0.00  0.00     0.010 A 
ATOM     21  C24 ZIN AC000      40.719 178.880 141.472  0.00  0.00     0.001 A 
ATOM     22  C23 ZIN AC000      39.802 177.860 141.643  0.00  0.00     0.000 A 
ATOM     23  C22 ZIN AC000      38.497 178.154 141.992  0.00  0.00     0.001 A 
ATOM     24  C21 ZIN AC000      38.110 179.469 142.170  0.00  0.00     0.010 A 
ENDBRANCH   1  19
TORSDOF 7
ENDMDL
MODEL 6
REMARK VINA RESULT:      -7.5      4.677      6.776
REMARK  7 active torsions:
REMARK  status: ('A' for Active; 'I' for Inactive)
REMARK    1  A    between atoms: N2_2  and  C5_5 
REMARK    2  A    between atoms: C5_5  and  C6_6 
REMARK    3  A    between atoms: C6_6  and  C7_7 
REMARK    4  A    between atoms: C7_7  and  O9_8 
REMARK    5  A    between atoms: C7_7  and  C20_19 
REMARK    6  A    between atoms: O9_8  and  C10_9 
REMARK    7  A    between atoms: C13_12  and  C14_13 
ROOT
ATOM      1  C7  ZIN AC000      32.850 184.362 142.988  0.00  0.00     0.163 C 
ENDROOT
BRANCH   1   2
ATOM      2  C6  ZIN AC000      32.400 185.508 143.895  0.00  0.00     0.065 C 
BRANCH   2   3
ATOM      3  C5  ZIN AC000      30.996 185.216 144.429  0.00  0.00     0.234 C 
BRANCH   3   4
ATOM      4  N2  ZIN AC000      30.880 185.723 145.804  0.00  0.00    -0.079 N 
ATOM      5  C1  ZIN AC000      30.114 184.768 146.615  0.00  0.00     0.266 C 
ATOM      6  H3  ZIN AC000      30.406 186.613 145.794  0.00  0.00     0.276 HD
ATOM      7  H4  ZIN AC000      31.802 185.837 146.199  0.00  0.00     0.276 HD
ENDBRANCH   3   4
ENDBRANCH   2   3
ENDBRANCH   1   2
BRANCH   1   8
ATOM      8  O9  ZIN AC000      32.792 184.783 141.623  0.00  0.00    -0.341 OA
BRANCH   8   9
ATOM      9  C10 ZIN AC000      33.216 183.896 140.685  0.00  0.00     0.069 A 
ATOM     10  C19 ZIN AC000      34.301 184.203 139.878  0.00  0.00     0.037 A 
ATOM     11  C18 ZIN AC000      34.733 183.298 138.928  0.00  0.00     0.019 A 
ATOM     12  C13 ZIN AC000      34.078 182.090 138.775  0.00  0.00     0.048 A 
ATOM     13  C12 ZIN AC000      32.993 181.783 139.574  0.00  0.00     0.019 A 
ATOM     14  C11 ZIN AC000      32.561 182.683 140.529  0.00  0.00     0.037 A 
BRANCH  12  15
ATOM     15  C14 ZIN AC000      34.548 181.105 137.736  0.00  0.00     0.417 C 
ATOM     16  F15 ZIN AC000      33.602 181.026 136.708  0.00  0.00    -0.166 F 
ATOM     17  F16 ZIN AC000      35.773 181.531 137.210  0.00  0.00    -0.166 F 
ATOM     18  F17 ZIN AC000      34.706 179.846 138.323  0.00  0.00    -0.166 F 
ENDBRANCH  12  15
ENDBRANCH   8   9
ENDBRANCH   1   8
BRANCH   1  19
ATOM     19  C20 ZIN AC000      34.264 183.972 143.334  0.00  0.00    -0.029 A 
ATOM     20  C25 ZIN AC000      34.528 182.717 143.850  0.00  0.00     0.010 A 
ATOM     21  C24 ZIN AC000      35.825 182.359 144.164  0.00  0.00     0.001 A 
ATOM     22  C23 ZIN AC000      36.857 183.257 143.969  0.00  0.00     0.000 A 
ATOM     23  C22 ZIN AC000      36.593 184.513 143.456  0.00  0.00     0.001 A 
ATOM     24  C21 ZIN AC000      35.296 184.871 143.139  0.00  0.00     0.010 A 
ENDBRANCH   1  19
TORSDOF 7
ENDMDL
MODEL 7
REMARK VINA RESULT:      -7.3     13.207     15.880
REMARK  7 active torsions:
REMARK  status: ('A' for Active; 'I' for Inactive)
REMARK    1  A    between atoms: N2_2  and  C5_5 
REMARK    2  A    between atoms: C5_5  and  C6_6 
REMARK    3  A    between atoms: C6_6  and  C7_7 
REMARK    4  A    between atoms: C7_7  and  O9_8 
REMARK    5  A    between atoms: C7_7  and  C20_19 
REMARK    6  A    between atoms: O9_8  and  C10_9 
REMARK    7  A    between atoms: C13_12  and  C14_13 
ROOT
ATOM      1  C7  ZIN AC000      43.619 178.196 139.641  0.00  0.00     0.163 C 
ENDROOT
BRANCH   1   2
ATOM      2  C6  ZIN AC000      43.850 179.647 139.220  0.00  0.00     0.065 C 
BRANCH   2   3
ATOM      3  C5  ZIN AC000      45.320 179.842 138.843  0.00  0.00     0.234 C 
BRANCH   3   4
ATOM      4  N2  ZIN AC000      45.972 180.704 139.839  0.00  0.00    -0.079 N 
ATOM      5  C1  ZIN AC000      47.315 180.187 140.129  0.00  0.00     0.266 C 
ATOM      6  H3  ZIN AC000      45.424 180.711 140.686  0.00  0.00     0.276 HD
ATOM      7  H4  ZIN AC000      46.043 181.643 139.476  0.00  0.00     0.276 HD
ENDBRANCH   3   4
ENDBRANCH   2   3
ENDBRANCH   1   2
BRANCH   1   8
ATOM      8  O9  ZIN AC000      44.693 177.767 140.481  0.00  0.00    -0.341 OA
BRANCH   8   9
ATOM      9  C10 ZIN AC000      45.327 176.616 140.133  0.00  0.00     0.069 A 
ATOM     10  C19 ZIN AC000      45.190 175.482 140.920  0.00  0.00     0.037 A 
ATOM     11  C18 ZIN AC000      45.832 174.312 140.562  0.00  0.00     0.019 A 
ATOM     12  C13 ZIN AC000      46.617 174.274 139.425  0.00  0.00     0.048 A 
ATOM     13  C12 ZIN AC000      46.760 175.404 138.642  0.00  0.00     0.019 A 
ATOM     14  C11 ZIN AC000      46.115 176.574 138.993  0.00  0.00     0.037 A 
BRANCH  12  15
ATOM     15  C14 ZIN AC000      47.319 172.998 139.039  0.00  0.00     0.417 C 
ATOM     16  F15 ZIN AC000      47.571 173.003 137.663  0.00  0.00    -0.166 F 
ATOM     17  F16 ZIN AC000      48.530 172.902 139.733  0.00  0.00    -0.166 F 
ATOM     18  F17 ZIN AC000      46.510 171.904 139.361  0.00  0.00    -0.166 F 
ENDBRANCH  12  15
ENDBRANCH   8   9
ENDBRANCH   1   8
BRANCH   1  19
ATOM     19  C20 ZIN AC000      42.318 178.092 140.396  0.00  0.00    -0.029 A 
ATOM     20  C25 ZIN AC000      41.733 179.228 140.922  0.00  0.00     0.010 A 
ATOM     21  C24 ZIN AC000      40.539 179.134 141.611  0.00  0.00     0.001 A 
ATOM     22  C23 ZIN AC000      39.933 177.904 141.780  0.00  0.00     0.000 A 
ATOM     23  C22 ZIN AC000      40.521 176.767 141.257  0.00  0.00     0.001 A 
ATOM     24  C21 ZIN AC000      41.713 176.861 140.566  0.00  0.00     0.010 A 
ENDBRANCH   1  19
TORSDOF 7
ENDMDL
MODEL 8
REMARK VINA RESULT:      -7.2      4.461      5.745
REMARK  7 active torsions:
REMARK  status: ('A' for Active; 'I' for Inactive)
REMARK    1  A    between atoms: N2_2  and  C5_5 
REMARK    2  A    between atoms: C5_5  and  C6_6 
REMARK    3  A    between atoms: C6_6  and  C7_7 
REMARK    4  A    between atoms: C7_7  and  O9_8 
REMARK    5  A    between atoms: C7_7  and  C20_19 
REMARK    6  A    between atoms: O9_8  and  C10_9 
REMARK    7  A    between atoms: C13_12  and  C14_13 
ROOT
ATOM      1  C7  ZIN AC000      38.032 181.958 142.547  0.00  0.00     0.163 C 
ENDROOT
BRANCH   1   2
ATOM      2  C6  ZIN AC000      39.098 183.047 142.676  0.00  0.00     0.065 C 
BRANCH   2   3
ATOM      3  C5  ZIN AC000      38.901 183.802 143.992  0.00  0.00     0.234 C 
BRANCH   3   4
ATOM      4  N2  ZIN AC000      39.822 183.267 145.006  0.00  0.00    -0.079 N 
ATOM      5  C1  ZIN AC000      40.778 184.310 145.397  0.00  0.00     0.266 C 
ATOM      6  H3  ZIN AC000      40.321 182.478 144.623  0.00  0.00     0.276 HD
ATOM      7  H4  ZIN AC000      39.296 182.971 145.815  0.00  0.00     0.276 HD
ENDBRANCH   3   4
ENDBRANCH   2   3
ENDBRANCH   1   2
BRANCH   1   8
ATOM      8  O9  ZIN AC000      37.117 182.308 141.506  0.00  0.00    -0.341 OA
BRANCH   8   9
ATOM      9  C10 ZIN AC000      36.033 183.049 141.860  0.00  0.00     0.069 A 
ATOM     10  C19 ZIN AC000      35.683 184.166 141.117  0.00  0.00     0.037 A 
ATOM     11  C18 ZIN AC000      34.578 184.915 141.476  0.00  0.00     0.019 A 
ATOM     12  C13 ZIN AC000      33.829 184.556 142.581  0.00  0.00     0.048 A 
ATOM     13  C12 ZIN AC000      34.179 183.447 143.327  0.00  0.00     0.019 A 
ATOM     14  C11 ZIN AC000      35.279 182.692 142.968  0.00  0.00     0.037 A 
BRANCH  12  15
ATOM     15  C14 ZIN AC000      32.627 185.377 142.973  0.00  0.00     0.417 C 
ATOM     16  F15 ZIN AC000      32.778 185.824 144.290  0.00  0.00    -0.166 F 
ATOM     17  F16 ZIN AC000      32.514 186.478 142.117  0.00  0.00    -0.166 F 
ATOM     18  F17 ZIN AC000      31.474 184.591 142.876  0.00  0.00    -0.166 F 
ENDBRANCH  12  15
ENDBRANCH   8   9
ENDBRANCH   1   8
BRANCH   1  19
ATOM     19  C20 ZIN AC000      38.692 180.645 142.215  0.00  0.00    -0.029 A 
ATOM     20  C25 ZIN AC000      37.971 179.469 142.297  0.00  0.00     0.010 A 
ATOM     21  C24 ZIN AC000      38.575 178.265 141.989  0.00  0.00     0.001 A 
ATOM     22  C23 ZIN AC000      39.902 178.236 141.605  0.00  0.00     0.000 A 
ATOM     23  C22 ZIN AC000      40.625 179.411 141.526  0.00  0.00     0.001 A 
ATOM     24  C21 ZIN AC000      40.020 180.616 141.831  0.00  0.00     0.010 A 
ENDBRANCH   1  19
TORSDOF 7
ENDMDL
MODEL 9
REMARK VINA RESULT:      -7.0     12.155     15.403
REMARK  7 active torsions:
REMARK  status: ('A' for Active; 'I' for Inactive)
REMARK    1  A    between atoms: N2_2  and  C5_5 
REMARK    2  A    between atoms: C5_5  and  C6_6 
REMARK    3  A    between atoms: C6_6  and  C7_7 
REMARK    4  A    between atoms: C7_7  and  O9_8 
REMARK    5  A    between atoms: C7_7  and  C20_19 
REMARK    6  A    between atoms: O9_8  and  C10_9 
REMARK    7  A    between atoms: C13_12  and  C14_13 
ROOT
ATOM      1  C7  ZIN AC000      20.208 178.176 146.547  0.00  0.00     0.163 C 
ENDROOT
BRANCH   1   2
ATOM      2  C6  ZIN AC000      20.940 179.115 145.586  0.00  0.00     0.065 C 
BRANCH   2   3
ATOM      3  C5  ZIN AC000      22.286 179.517 146.192  0.00  0.00     0.234 C 
BRANCH   3   4
ATOM      4  N2  ZIN AC000      23.177 180.002 145.128  0.00  0.00    -0.079 N 
ATOM      5  C1  ZIN AC000      23.501 181.414 145.366  0.00  0.00     0.266 C 
ATOM      6  H3  ZIN AC000      22.715 179.908 144.235  0.00  0.00     0.276 HD
ATOM      7  H4  ZIN AC000      24.026 179.456 145.126  0.00  0.00     0.276 HD
ENDBRANCH   3   4
ENDBRANCH   2   3
ENDBRANCH   1   2
BRANCH   1   8
ATOM      8  O9  ZIN AC000      21.101 177.770 147.587  0.00  0.00    -0.341 OA
BRANCH   8   9
ATOM      9  C10 ZIN AC000      21.457 176.458 147.617  0.00  0.00     0.069 A 
ATOM     10  C19 ZIN AC000      21.826 175.812 146.447  0.00  0.00     0.037 A 
ATOM     11  C18 ZIN AC000      22.191 174.480 146.480  0.00  0.00     0.019 A 
ATOM     12  C13 ZIN AC000      22.181 173.789 147.677  0.00  0.00     0.048 A 
ATOM     13  C12 ZIN AC000      21.809 174.429 148.844  0.00  0.00     0.019 A 
ATOM     14  C11 ZIN AC000      21.448 175.762 148.817  0.00  0.00     0.037 A 
BRANCH  12  15
ATOM     15  C14 ZIN AC000      22.577 172.335 147.711  0.00  0.00     0.417 C 
ATOM     16  F15 ZIN AC000      23.953 172.233 147.938  0.00  0.00    -0.166 F 
ATOM     17  F16 ZIN AC000      21.885 171.686 148.739  0.00  0.00    -0.166 F 
ATOM     18  F17 ZIN AC000      22.261 171.738 146.486  0.00  0.00    -0.166 F 
ENDBRANCH  12  15
ENDBRANCH   8   9
ENDBRANCH   1   8
BRANCH   1  19
ATOM     19  C20 ZIN AC000      19.028 178.894 147.150  0.00  0.00    -0.029 A 
ATOM     20  C25 ZIN AC000      18.202 179.659 146.348  0.00  0.00     0.010 A 
ATOM     21  C24 ZIN AC000      17.118 180.315 146.900  0.00  0.00     0.001 A 
ATOM     22  C23 ZIN AC000      16.864 180.212 148.255  0.00  0.00     0.000 A 
ATOM     23  C22 ZIN AC000      17.693 179.450 149.057  0.00  0.00     0.001 A 
ATOM     24  C21 ZIN AC000      18.775 178.792 148.505  0.00  0.00     0.010 A 
ENDBRANCH   1  19
TORSDOF 7
ENDMDL
