MODEL 1
REMARK VINA RESULT:      -7.4      0.000      0.000
REMARK  2 active torsions:
REMARK  status: ('A' for Active; 'I' for Inactive)
REMARK    1  A    between atoms: C2_2  and  C5_5 
REMARK    2  A    between atoms: C7_7  and  N1_13 
ROOT
ATOM      1  C1  UNK     1      43.633 173.468 142.393  1.00  0.00    -0.041 A 
ATOM      2  C2  UNK     1      43.719 174.670 143.333  1.00  0.00     0.052 C 
ATOM      3  C3  UNK     1      44.681 173.069 141.653  1.00  0.00    -0.021 A 
ATOM      4  C4  UNK     1      42.481 172.796 142.328  1.00  0.00     0.008 A 
ATOM      5  C6  UNK     1      45.167 175.011 143.726  1.00  0.00     0.016 C 
ATOM      6  C7  UNK     1      46.035 173.787 141.712  1.00  0.00     0.218 C 
ATOM      7  C8  UNK     1      44.556 171.979 140.888  1.00  0.00     0.010 A 
ATOM      8  C9  UNK     1      42.364 171.732 141.541  1.00  0.00     0.001 A 
ATOM      9  C12 UNK     1      46.021 175.132 142.463  1.00  0.00     0.039 C 
ATOM     10  C13 UNK     1      43.403 171.322 140.825  1.00  0.00     0.001 A 
ENDROOT
BRANCH   2  11
ATOM     11  C5  UNK     1      42.965 175.887 142.781  1.00  0.00    -0.048 A 
ATOM     12  C10 UNK     1      43.146 176.337 141.536  1.00  0.00     0.033 A 
ATOM     13  C14 UNK     1      42.475 177.396 141.084  1.00  0.00     0.056 A 
ATOM     14  C17 UNK     1      41.614 178.026 141.889  1.00  0.00     0.055 A 
ATOM     15 Cl1  UNK     1      42.737 177.918 139.460  1.00  0.00    -0.083 Cl
ATOM     16  C15 UNK     1      41.440 177.585 143.133  1.00  0.00     0.026 A 
ATOM     17 Cl2  UNK     1      40.718 179.405 141.359  1.00  0.00    -0.083 Cl
ATOM     18  C11 UNK     1      42.105 176.522 143.574  1.00  0.00     0.009 A 
ENDBRANCH   2  11
BRANCH   6  19
ATOM     19  N1  UNK     1      46.591 173.967 140.317  1.00  0.00    -0.071 N 
ATOM     20  H12 UNK     1      46.169 173.264 139.693  1.00  0.00     0.277 HD
ATOM     21  H13 UNK     1      47.608 173.809 140.349  1.00  0.00     0.277 HD
ATOM     22  C16 UNK     1      46.345 175.343 139.759  1.00  0.00     0.267 C 
ENDBRANCH   6  19
TORSDOF 2
ENDMDL
MODEL 2
REMARK VINA RESULT:      -7.3     23.452     25.386
REMARK  2 active torsions:
REMARK  status: ('A' for Active; 'I' for Inactive)
REMARK    1  A    between atoms: C2_2  and  C5_5 
REMARK    2  A    between atoms: C7_7  and  N1_13 
ROOT
ATOM      1  C1  UNK     1      51.718 179.094 166.402  1.00  0.00    -0.041 A 
ATOM      2  C2  UNK     1      51.459 179.259 164.905  1.00  0.00     0.052 C 
ATOM      3  C3  UNK     1      52.781 178.419 166.870  1.00  0.00    -0.021 A 
ATOM      4  C4  UNK     1      50.860 179.656 167.258  1.00  0.00     0.008 A 
ATOM      5  C6  UNK     1      52.730 179.062 164.060  1.00  0.00     0.016 C 
ATOM      6  C7  UNK     1      53.811 177.780 165.930  1.00  0.00     0.218 C 
ATOM      7  C8  UNK     1      52.978 178.354 168.191  1.00  0.00     0.010 A 
ATOM      8  C9  UNK     1      51.054 179.558 168.569  1.00  0.00     0.001 A 
ATOM      9  C12 UNK     1      53.396 177.740 164.447  1.00  0.00     0.039 C 
ATOM     10  C13 UNK     1      52.114 178.910 169.034  1.00  0.00     0.001 A 
ENDROOT
BRANCH   2  11
ATOM     11  C5  UNK     1      50.299 178.380 164.421  1.00  0.00    -0.048 A 
ATOM     12  C10 UNK     1      49.659 177.530 165.228  1.00  0.00     0.033 A 
ATOM     13  C14 UNK     1      48.652 176.781 164.779  1.00  0.00     0.056 A 
ATOM     14  C17 UNK     1      48.281 176.871 163.499  1.00  0.00     0.055 A 
ATOM     15 Cl1  UNK     1      47.852 175.715 165.877  1.00  0.00    -0.083 Cl
ATOM     16  C15 UNK     1      48.924 177.711 162.690  1.00  0.00     0.026 A 
ATOM     17 Cl2  UNK     1      46.986 175.924 162.861  1.00  0.00    -0.083 Cl
ATOM     18  C11 UNK     1      49.920 178.463 163.147  1.00  0.00     0.009 A 
ENDBRANCH   2  11
BRANCH   6  19
ATOM     19  N1  UNK     1      54.169 176.393 166.415  1.00  0.00    -0.071 N 
ATOM     20  H12 UNK     1      54.206 176.395 167.445  1.00  0.00     0.277 HD
ATOM     21  H13 UNK     1      55.102 176.151 166.053  1.00  0.00     0.277 HD
ATOM     22  C16 UNK     1      53.198 175.339 165.953  1.00  0.00     0.267 C 
ENDBRANCH   6  19
TORSDOF 2
ENDMDL
MODEL 3
REMARK VINA RESULT:      -7.1      3.679      6.158
REMARK  2 active torsions:
REMARK  status: ('A' for Active; 'I' for Inactive)
REMARK    1  A    between atoms: C2_2  and  C5_5 
REMARK    2  A    between atoms: C7_7  and  N1_13 
ROOT
ATOM      1  C1  UNK     1      47.305 177.736 139.685  1.00  0.00    -0.041 A 
ATOM      2  C2  UNK     1      47.637 176.244 139.730  1.00  0.00     0.052 C 
ATOM      3  C3  UNK     1      47.855 178.613 140.541  1.00  0.00    -0.021 A 
ATOM      4  C4  UNK     1      46.451 178.165 138.752  1.00  0.00     0.008 A 
ATOM      5  C6  UNK     1      48.974 175.958 140.437  1.00  0.00     0.016 C 
ATOM      6  C7  UNK     1      48.862 178.176 141.612  1.00  0.00     0.218 C 
ATOM      7  C8  UNK     1      47.560 179.911 140.417  1.00  0.00     0.010 A 
ATOM      8  C9  UNK     1      46.146 179.455 138.660  1.00  0.00     0.001 A 
ATOM      9  C12 UNK     1      48.985 176.652 141.801  1.00  0.00     0.039 C 
ATOM     10  C13 UNK     1      46.704 180.327 139.490  1.00  0.00     0.001 A 
ENDROOT
BRANCH   2  11
ATOM     11  C5  UNK     1      46.485 175.414 140.309  1.00  0.00    -0.048 A 
ATOM     12  C10 UNK     1      46.435 174.084 140.199  1.00  0.00     0.033 A 
ATOM     13  C14 UNK     1      45.421 173.389 140.714  1.00  0.00     0.056 A 
ATOM     14  C17 UNK     1      44.432 174.031 141.343  1.00  0.00     0.055 A 
ATOM     15 Cl1  UNK     1      45.423 171.670 140.556  1.00  0.00    -0.083 Cl
ATOM     16  C15 UNK     1      44.476 175.358 141.446  1.00  0.00     0.026 A 
ATOM     17 Cl2  UNK     1      43.093 173.183 142.029  1.00  0.00    -0.083 Cl
ATOM     18  C11 UNK     1      45.495 176.043 140.938  1.00  0.00     0.009 A 
ENDBRANCH   2  11
BRANCH   6  19
ATOM     19  N1  UNK     1      48.546 178.847 142.929  1.00  0.00    -0.071 N 
ATOM     20  H12 UNK     1      47.752 179.489 142.798  1.00  0.00     0.277 HD
ATOM     21  H13 UNK     1      49.368 179.397 143.221  1.00  0.00     0.277 HD
ATOM     22  C16 UNK     1      48.222 177.868 144.026  1.00  0.00     0.267 C 
ENDBRANCH   6  19
TORSDOF 2
ENDMDL
MODEL 4
REMARK VINA RESULT:      -7.1     17.677     19.806
REMARK  2 active torsions:
REMARK  status: ('A' for Active; 'I' for Inactive)
REMARK    1  A    between atoms: C2_2  and  C5_5 
REMARK    2  A    between atoms: C7_7  and  N1_13 
ROOT
ATOM      1  C1  UNK     1      45.088 177.206 121.937  1.00  0.00    -0.041 A 
ATOM      2  C2  UNK     1      45.731 178.181 122.924  1.00  0.00     0.052 C 
ATOM      3  C3  UNK     1      44.256 176.232 122.341  1.00  0.00    -0.021 A 
ATOM      4  C4  UNK     1      45.360 177.351 120.638  1.00  0.00     0.008 A 
ATOM      5  C6  UNK     1      44.961 178.271 124.253  1.00  0.00     0.016 C 
ATOM      6  C7  UNK     1      43.888 176.041 123.818  1.00  0.00     0.218 C 
ATOM      7  C8  UNK     1      43.688 175.444 121.423  1.00  0.00     0.010 A 
ATOM      8  C9  UNK     1      44.809 176.541 119.740  1.00  0.00     0.001 A 
ATOM      9  C12 UNK     1      44.738 176.862 124.807  1.00  0.00     0.039 C 
ATOM     10  C13 UNK     1      43.971 175.591 120.133  1.00  0.00     0.001 A 
ENDROOT
BRANCH   2  11
ATOM     11  C5  UNK     1      47.222 177.886 123.137  1.00  0.00    -0.048 A 
ATOM     12  C10 UNK     1      48.184 178.673 122.648  1.00  0.00     0.033 A 
ATOM     13  C14 UNK     1      49.471 178.392 122.851  1.00  0.00     0.056 A 
ATOM     14  C17 UNK     1      49.808 177.301 123.545  1.00  0.00     0.055 A 
ATOM     15 Cl1  UNK     1      50.668 179.459 122.211  1.00  0.00    -0.083 Cl
ATOM     16  C15 UNK     1      48.850 176.510 124.025  1.00  0.00     0.026 A 
ATOM     17 Cl2  UNK     1      51.459 176.885 123.838  1.00  0.00    -0.083 Cl
ATOM     18  C11 UNK     1      47.568 176.802 123.827  1.00  0.00     0.009 A 
ENDBRANCH   2  11
BRANCH   6  19
ATOM     19  N1  UNK     1      43.929 174.574 124.180  1.00  0.00    -0.071 N 
ATOM     20  H12 UNK     1      43.579 174.021 123.384  1.00  0.00     0.277 HD
ATOM     21  H13 UNK     1      43.305 174.419 124.985  1.00  0.00     0.277 HD
ATOM     22  C16 UNK     1      45.307 174.097 124.553  1.00  0.00     0.267 C 
ENDBRANCH   6  19
TORSDOF 2
ENDMDL
MODEL 5
REMARK VINA RESULT:      -7.0      3.087      4.134
REMARK  2 active torsions:
REMARK  status: ('A' for Active; 'I' for Inactive)
REMARK    1  A    between atoms: C2_2  and  C5_5 
REMARK    2  A    between atoms: C7_7  and  N1_13 
ROOT
ATOM      1  C1  UNK     1      45.393 173.152 141.624  1.00  0.00    -0.041 A 
ATOM      2  C2  UNK     1      46.665 173.940 141.938  1.00  0.00     0.052 C 
ATOM      3  C3  UNK     1      45.417 172.028 140.890  1.00  0.00    -0.021 A 
ATOM      4  C4  UNK     1      44.235 173.601 142.114  1.00  0.00     0.008 A 
ATOM      5  C6  UNK     1      47.938 173.086 141.804  1.00  0.00     0.016 C 
ATOM      6  C7  UNK     1      46.725 171.455 140.329  1.00  0.00     0.218 C 
ATOM      7  C8  UNK     1      44.277 171.358 140.693  1.00  0.00     0.010 A 
ATOM      8  C9  UNK     1      43.105 172.939 141.885  1.00  0.00     0.001 A 
ATOM      9  C12 UNK     1      47.942 172.392 140.441  1.00  0.00     0.039 C 
ATOM     10  C13 UNK     1      43.128 171.817 141.178  1.00  0.00     0.001 A 
ENDROOT
BRANCH   2  11
ATOM     11  C5  UNK     1      46.751 175.241 141.129  1.00  0.00    -0.048 A 
ATOM     12  C10 UNK     1      47.395 176.322 141.578  1.00  0.00     0.033 A 
ATOM     13  C14 UNK     1      47.455 177.438 140.851  1.00  0.00     0.056 A 
ATOM     14  C17 UNK     1      46.854 177.482 139.659  1.00  0.00     0.055 A 
ATOM     15 Cl1  UNK     1      48.318 178.795 141.478  1.00  0.00    -0.083 Cl
ATOM     16  C15 UNK     1      46.205 176.408 139.213  1.00  0.00     0.026 A 
ATOM     17 Cl2  UNK     1      46.897 178.901 138.674  1.00  0.00    -0.083 Cl
ATOM     18  C11 UNK     1      46.157 175.296 139.939  1.00  0.00     0.009 A 
ENDBRANCH   2  11
BRANCH   6  19
ATOM     19  N1  UNK     1      46.528 171.014 138.896  1.00  0.00    -0.071 N 
ATOM     20  H12 UNK     1      45.839 171.633 138.445  1.00  0.00     0.277 HD
ATOM     21  H13 UNK     1      46.155 170.054 138.898  1.00  0.00     0.277 HD
ATOM     22  C16 UNK     1      47.804 171.021 138.097  1.00  0.00     0.267 C 
ENDBRANCH   6  19
TORSDOF 2
ENDMDL
MODEL 6
REMARK VINA RESULT:      -7.0     17.128     18.870
REMARK  2 active torsions:
REMARK  status: ('A' for Active; 'I' for Inactive)
REMARK    1  A    between atoms: C2_2  and  C5_5 
REMARK    2  A    between atoms: C7_7  and  N1_13 
ROOT
ATOM      1  C1  UNK     1      44.631 174.590 124.285  1.00  0.00    -0.041 A 
ATOM      2  C2  UNK     1      44.910 173.088 124.353  1.00  0.00     0.052 C 
ATOM      3  C3  UNK     1      44.388 175.216 123.122  1.00  0.00    -0.021 A 
ATOM      4  C4  UNK     1      44.617 175.282 125.427  1.00  0.00     0.008 A 
ATOM      5  C6  UNK     1      44.382 172.333 123.120  1.00  0.00     0.016 C 
ATOM      6  C7  UNK     1      44.363 174.462 121.786  1.00  0.00     0.218 C 
ATOM      7  C8  UNK     1      44.102 176.522 123.136  1.00  0.00     0.010 A 
ATOM      8  C9  UNK     1      44.360 176.586 125.421  1.00  0.00     0.001 A 
ATOM      9  C12 UNK     1      44.893 173.016 121.850  1.00  0.00     0.039 C 
ATOM     10  C13 UNK     1      44.099 177.204 124.277  1.00  0.00     0.001 A 
ENDROOT
BRANCH   2  11
ATOM     11  C5  UNK     1      46.389 172.789 124.628  1.00  0.00    -0.048 A 
ATOM     12  C10 UNK     1      47.337 173.726 124.544  1.00  0.00     0.033 A 
ATOM     13  C14 UNK     1      48.614 173.436 124.791  1.00  0.00     0.056 A 
ATOM     14  C17 UNK     1      48.956 172.187 125.118  1.00  0.00     0.055 A 
ATOM     15 Cl1  UNK     1      49.790 174.695 124.686  1.00  0.00    -0.083 Cl
ATOM     16  C15 UNK     1      48.014 171.249 125.194  1.00  0.00     0.026 A 
ATOM     17 Cl2  UNK     1      50.595 171.752 125.448  1.00  0.00    -0.083 Cl
ATOM     18  C11 UNK     1      46.741 171.548 124.956  1.00  0.00     0.009 A 
ENDBRANCH   2  11
BRANCH   6  19
ATOM     19  N1  UNK     1      45.104 175.249 120.729  1.00  0.00    -0.071 N 
ATOM     20  H12 UNK     1      44.931 176.254 120.875  1.00  0.00     0.277 HD
ATOM     21  H13 UNK     1      44.735 174.983 119.805  1.00  0.00     0.277 HD
ATOM     22  C16 UNK     1      46.587 174.992 120.735  1.00  0.00     0.267 C 
ENDBRANCH   6  19
TORSDOF 2
ENDMDL
MODEL 7
REMARK VINA RESULT:      -6.7     38.945     40.531
REMARK  2 active torsions:
REMARK  status: ('A' for Active; 'I' for Inactive)
REMARK    1  A    between atoms: C2_2  and  C5_5 
REMARK    2  A    between atoms: C7_7  and  N1_13 
ROOT
ATOM      1  C1  UNK     1      45.695 175.611 183.038  1.00  0.00    -0.041 A 
ATOM      2  C2  UNK     1      46.802 176.535 183.545  1.00  0.00     0.052 C 
ATOM      3  C3  UNK     1      45.855 174.279 182.977  1.00  0.00    -0.021 A 
ATOM      4  C4  UNK     1      44.536 176.158 182.664  1.00  0.00     0.008 A 
ATOM      5  C6  UNK     1      47.831 175.800 184.422  1.00  0.00     0.016 C 
ATOM      6  C7  UNK     1      47.155 173.597 183.422  1.00  0.00     0.218 C 
ATOM      7  C8  UNK     1      44.830 173.521 182.571  1.00  0.00     0.010 A 
ATOM      8  C9  UNK     1      43.537 175.394 182.236  1.00  0.00     0.001 A 
ATOM      9  C12 UNK     1      48.331 174.558 183.683  1.00  0.00     0.039 C 
ATOM     10  C13 UNK     1      43.683 174.077 182.193  1.00  0.00     0.001 A 
ENDROOT
BRANCH   2  11
ATOM     11  C5  UNK     1      47.465 177.319 182.405  1.00  0.00    -0.048 A 
ATOM     12  C10 UNK     1      47.536 176.846 181.158  1.00  0.00     0.033 A 
ATOM     13  C14 UNK     1      48.117 177.551 180.187  1.00  0.00     0.056 A 
ATOM     14  C17 UNK     1      48.647 178.745 180.465  1.00  0.00     0.055 A 
ATOM     15 Cl1  UNK     1      48.159 176.894 178.591  1.00  0.00    -0.083 Cl
ATOM     16  C15 UNK     1      48.586 179.214 181.710  1.00  0.00     0.026 A 
ATOM     17 Cl2  UNK     1      49.413 179.703 179.249  1.00  0.00    -0.083 Cl
ATOM     18  C11 UNK     1      47.996 178.510 182.671  1.00  0.00     0.009 A 
ENDBRANCH   2  11
BRANCH   6  19
ATOM     19  N1  UNK     1      47.554 172.534 182.424  1.00  0.00    -0.071 N 
ATOM     20  H12 UNK     1      46.705 172.078 182.060  1.00  0.00     0.277 HD
ATOM     21  H13 UNK     1      48.123 171.826 182.911  1.00  0.00     0.277 HD
ATOM     22  C16 UNK     1      48.361 173.078 181.275  1.00  0.00     0.267 C 
ENDBRANCH   6  19
TORSDOF 2
ENDMDL
MODEL 8
REMARK VINA RESULT:      -6.7      2.722      5.218
REMARK  2 active torsions:
REMARK  status: ('A' for Active; 'I' for Inactive)
REMARK    1  A    between atoms: C2_2  and  C5_5 
REMARK    2  A    between atoms: C7_7  and  N1_13 
ROOT
ATOM      1  C1  UNK     1      47.397 177.741 140.112  1.00  0.00    -0.041 A 
ATOM      2  C2  UNK     1      46.306 177.435 139.086  1.00  0.00     0.052 C 
ATOM      3  C3  UNK     1      48.312 176.825 140.470  1.00  0.00    -0.021 A 
ATOM      4  C4  UNK     1      47.438 178.964 140.646  1.00  0.00     0.008 A 
ATOM      5  C6  UNK     1      46.667 176.249 138.174  1.00  0.00     0.016 C 
ATOM      6  C7  UNK     1      48.327 175.416 139.865  1.00  0.00     0.218 C 
ATOM      7  C8  UNK     1      49.271 177.171 141.336  1.00  0.00     0.010 A 
ATOM      8  C9  UNK     1      48.380 179.283 141.527  1.00  0.00     0.001 A 
ATOM      9  C12 UNK     1      47.080 175.055 139.035  1.00  0.00     0.039 C 
ATOM     10  C13 UNK     1      49.297 178.388 141.869  1.00  0.00     0.001 A 
ENDROOT
BRANCH   2  11
ATOM     11  C5  UNK     1      44.930 177.265 139.742  1.00  0.00    -0.048 A 
ATOM     12  C10 UNK     1      44.676 176.304 140.634  1.00  0.00     0.033 A 
ATOM     13  C14 UNK     1      43.471 176.182 141.189  1.00  0.00     0.056 A 
ATOM     14  C17 UNK     1      42.495 177.027 140.842  1.00  0.00     0.055 A 
ATOM     15 Cl1  UNK     1      43.210 174.932 142.350  1.00  0.00    -0.083 Cl
ATOM     16  C15 UNK     1      42.744 177.980 139.946  1.00  0.00     0.026 A 
ATOM     17 Cl2  UNK     1      40.913 176.916 141.527  1.00  0.00    -0.083 Cl
ATOM     18  C11 UNK     1      43.951 178.102 139.404  1.00  0.00     0.009 A 
ENDBRANCH   2  11
BRANCH   6  19
ATOM     19  N1  UNK     1      48.557 174.385 140.947  1.00  0.00    -0.071 N 
ATOM     20  H12 UNK     1      49.076 174.822 141.723  1.00  0.00     0.277 HD
ATOM     21  H13 UNK     1      49.131 173.624 140.557  1.00  0.00     0.277 HD
ATOM     22  C16 UNK     1      47.279 173.790 141.474  1.00  0.00     0.267 C 
ENDBRANCH   6  19
TORSDOF 2
ENDMDL
MODEL 9
REMARK VINA RESULT:      -6.7      3.671      5.933
REMARK  2 active torsions:
REMARK  status: ('A' for Active; 'I' for Inactive)
REMARK    1  A    between atoms: C2_2  and  C5_5 
REMARK    2  A    between atoms: C7_7  and  N1_13 
ROOT
ATOM      1  C1  UNK     1      44.841 177.736 139.591  1.00  0.00    -0.041 A 
ATOM      2  C2  UNK     1      45.614 176.417 139.583  1.00  0.00     0.052 C 
ATOM      3  C3  UNK     1      45.454 178.920 139.433  1.00  0.00    -0.021 A 
ATOM      4  C4  UNK     1      43.515 177.690 139.746  1.00  0.00     0.008 A 
ATOM      5  C6  UNK     1      46.979 176.537 138.883  1.00  0.00     0.016 C 
ATOM      6  C7  UNK     1      46.970 179.025 139.222  1.00  0.00     0.218 C 
ATOM      7  C8  UNK     1      44.715 180.033 139.399  1.00  0.00     0.010 A 
ATOM      8  C9  UNK     1      42.798 178.808 139.739  1.00  0.00     0.001 A 
ATOM      9  C12 UNK     1      47.750 177.720 139.471  1.00  0.00     0.039 C 
ATOM     10  C13 UNK     1      43.397 179.978 139.562  1.00  0.00     0.001 A 
ENDROOT
BRANCH   2  11
ATOM     11  C5  UNK     1      45.734 175.811 140.987  1.00  0.00    -0.048 A 
ATOM     12  C10 UNK     1      46.651 176.220 141.868  1.00  0.00     0.033 A 
ATOM     13  C14 UNK     1      46.728 175.675 143.082  1.00  0.00     0.056 A 
ATOM     14  C17 UNK     1      45.884 174.698 143.423  1.00  0.00     0.055 A 
ATOM     15 Cl1  UNK     1      47.923 176.260 144.183  1.00  0.00    -0.083 Cl
ATOM     16  C15 UNK     1      44.975 174.283 142.543  1.00  0.00     0.026 A 
ATOM     17 Cl2  UNK     1      45.939 173.954 144.981  1.00  0.00    -0.083 Cl
ATOM     18  C11 UNK     1      44.896 174.837 141.338  1.00  0.00     0.009 A 
ENDBRANCH   2  11
BRANCH   6  19
ATOM     19  N1  UNK     1      47.537 180.147 140.064  1.00  0.00    -0.071 N 
ATOM     20  H12 UNK     1      46.782 180.810 140.292  1.00  0.00     0.277 HD
ATOM     21  H13 UNK     1      48.252 180.640 139.511  1.00  0.00     0.277 HD
ATOM     22  C16 UNK     1      48.177 179.662 141.337  1.00  0.00     0.267 C 
ENDBRANCH   6  19
TORSDOF 2
ENDMDL
MODEL 10
REMARK VINA RESULT:      -6.7     46.830     48.487
REMARK  2 active torsions:
REMARK  status: ('A' for Active; 'I' for Inactive)
REMARK    1  A    between atoms: C2_2  and  C5_5 
REMARK    2  A    between atoms: C7_7  and  N1_13 
ROOT
ATOM      1  C1  UNK     1      28.222 172.188 188.843  1.00  0.00    -0.041 A 
ATOM      2  C2  UNK     1      29.571 172.738 189.308  1.00  0.00     0.052 C 
ATOM      3  C3  UNK     1      27.946 170.874 188.865  1.00  0.00    -0.021 A 
ATOM      4  C4  UNK     1      27.298 173.054 188.421  1.00  0.00     0.008 A 
ATOM      5  C6  UNK     1      30.315 171.768 190.242  1.00  0.00     0.016 C 
ATOM      6  C7  UNK     1      28.962 169.840 189.368  1.00  0.00     0.218 C 
ATOM      7  C8  UNK     1      26.730 170.461 188.492  1.00  0.00     0.010 A 
ATOM      8  C9  UNK     1      26.104 172.625 188.026  1.00  0.00     0.001 A 
ATOM      9  C12 UNK     1      30.385 170.387 189.587  1.00  0.00     0.039 C 
ATOM     10  C13 UNK     1      25.819 171.330 188.066  1.00  0.00     0.001 A 
ENDROOT
BRANCH   2  11
ATOM     11  C5  UNK     1      30.443 173.195 188.132  1.00  0.00    -0.048 A 
ATOM     12  C10 UNK     1      31.207 174.289 188.190  1.00  0.00     0.033 A 
ATOM     13  C14 UNK     1      31.956 174.660 187.152  1.00  0.00     0.056 A 
ATOM     14  C17 UNK     1      31.936 173.935 186.030  1.00  0.00     0.055 A 
ATOM     15 Cl1  UNK     1      32.939 176.073 187.295  1.00  0.00    -0.083 Cl
ATOM     16  C15 UNK     1      31.168 172.849 185.967  1.00  0.00     0.026 A 
ATOM     17 Cl2  UNK     1      32.885 174.368 184.653  1.00  0.00    -0.083 Cl
ATOM     18  C11 UNK     1      30.431 172.479 187.010  1.00  0.00     0.009 A 
ENDBRANCH   2  11
BRANCH   6  19
ATOM     19  N1  UNK     1      28.992 168.645 188.442  1.00  0.00    -0.071 N 
ATOM     20  H12 UNK     1      28.065 168.533 188.007  1.00  0.00     0.277 HD
ATOM     21  H13 UNK     1      29.196 167.804 189.001  1.00  0.00     0.277 HD
ATOM     22  C16 UNK     1      30.038 168.761 187.365  1.00  0.00     0.267 C 
ENDBRANCH   6  19
TORSDOF 2
ENDMDL
