@<TRIPOS>COMMENT
 LIGANDBOX_ID = KEGG_DURG-00002180-01
 SOURCE = KEGG_DRUG
 SUPPLIER = KEGG_DRUG
 IDNUMBER = D02360
 MOLECULAR_FORMULA = C17H18NCl2
 MOLECULAR_WEIGHT = 307.244
 MOLECULAR_CHARGE = 1
 NUM_OF_DONOR = 2
 NUM_OF_ACCEPTOR = 0
 HOMO = -12.2832
 LUMO = -4.0097
 NUM_OF_CHIRAL_ATOMS = 2
 LOGS = -5.9171
 LOGP = 5.8763
 NOTE = 

@<TRIPOS>MOLECULE
KEGG_DURG-00002180-01
 38 40 0 0 0
SMALL
USER_CHARGES

@<TRIPOS>ATOM
     1 C1          24.2070   -17.8680    -0.0570 C.ar      1  UNK        -0.0267
     2 C2          25.4690   -18.7260     0.0380 C.3       1  UNK        -0.0435
     3 H1          25.4080   -19.4680    -0.7600 H         1  UNK         0.1238
     4 C3          24.2460   -16.5310     0.0630 C.ar      1  UNK        -0.1296
     5 C4          23.0420   -18.4800    -0.2810 C.ar      1  UNK        -0.1015
     6 H2          23.0020   -19.5550    -0.3800 H         1  UNK         0.1575
     7 C5          25.5440   -19.4950     1.3630 C.ar      1  UNK        -0.0706
     8 C6          26.7520   -17.9230    -0.2420 C.3       1  UNK        -0.1396
     9 H3          27.6320   -18.5330    -0.0400 H         1  UNK         0.1130
    10 H4          26.7760   -17.6280    -1.2910 H         1  UNK         0.1130
    11 C7          25.5620   -15.7760     0.2920 C.3       1  UNK        -0.0211
    12 H5          25.7930   -15.2480    -0.6490 H         1  UNK         0.1435
    13 C8          23.1140   -15.8340    -0.0790 C.ar      1  UNK        -0.1363
    14 H6          23.1200   -14.7550    -0.0270 H         1  UNK         0.1089
    15 C9          21.9210   -17.7760    -0.3920 C.ar      1  UNK        -0.0824
    16 H7          20.9810   -18.2800    -0.5660 H         1  UNK         0.1569
    17 C10         24.9460   -19.0640     2.4770 C.ar      1  UNK        -0.1272
    18 H8          24.3870   -18.1400     2.4810 H         1  UNK         0.1286
    19 C11         26.2370   -20.6310     1.4060 C.ar      1  UNK        -0.1111
    20 H9          26.7400   -20.9990     0.5220 H         1  UNK         0.1435
    21 C12         26.7690   -16.6710     0.6360 C.3       1  UNK        -0.1721
    22 H10         26.7370   -16.9580     1.6870 H         1  UNK         0.1047
    23 H11         27.6950   -16.1240     0.4610 H         1  UNK         0.1047
    24 N1          25.3760   -14.7120     1.3500 N.4       1  UNK        -0.0495
    25 H12         25.2880   -15.1650     2.2710 H         1  UNK         0.2506
    26 H13         24.5030   -14.2030     1.1510 H         1  UNK         0.2506
    27 C13         21.9580   -16.4530    -0.2940 C.ar      1  UNK        -0.1046
    28 H14         21.0470   -15.8790    -0.3890 H         1  UNK         0.1521
    29 C14         25.0270   -19.7560     3.6130 C.ar      1  UNK        -0.0438
    30 C15         26.3300   -21.3210     2.5380 C.ar      1  UNK        -0.1042
    31 H15         26.9040   -22.2370     2.5550 H         1  UNK         0.1624
    32 C16         26.5040   -13.7170     1.3890 C.3       1  UNK        -0.1742
    33 H16         27.4340   -14.2490     1.6540 H         1  UNK         0.1434
    34 H17         26.2680   -12.9540     2.1490 H         1  UNK         0.1434
    35 H18         26.5950   -13.2540     0.3910 H         1  UNK         0.1434
    36 C17         25.7260   -20.8940     3.6450 C.ar      1  UNK        -0.0354
    37 Cl1         24.2160   -19.1560     5.0140 Cl        1  UNK         0.0053
    38 Cl2         25.8670   -21.8310     5.0890 Cl        1  UNK         0.0241

@<TRIPOS>BOND
     1     1     2   1
     2     1     4  ar
     3     1     5  ar
     4     2     7   1
     5     2     8   1
     6     4    11   1
     7     4    13  ar
     8     5    15  ar
     9     7    17  ar
    10     7    19  ar
    11     8    21   1
    12    11    24   1
    13    13    27  ar
    14    17    29  ar
    15    19    30  ar
    16    24    32   1
    17    29    36  ar
    18    29    37   1
    19    36    38   1
    20    11    21   1
    21    15    27  ar
    22    30    36  ar
    23     2     3   1
    24     5     6   1
    25     8     9   1
    26     8    10   1
    27    11    12   1
    28    13    14   1
    29    15    16   1
    30    17    18   1
    31    19    20   1
    32    21    22   1
    33    21    23   1
    34    24    25   1
    35    24    26   1
    36    27    28   1
    37    30    31   1
    38    32    33   1
    39    32    34   1
    40    32    35   1

