MODEL 1
REMARK VINA RESULT:      -7.0      0.000      0.000
REMARK  5 active torsions:
REMARK  status: ('A' for Active; 'I' for Inactive)
REMARK    1  A    between atoms: C5_10  and  O1_1 
REMARK    2  A    between atoms: C8_13  and  O2_2 
REMARK    3  A    between atoms: O4_4  and  C21_26 
REMARK    4  A    between atoms: C5_10  and  C17_22 
REMARK    5  A    between atoms: C17_22  and  C21_26 
ROOT
ATOM      1  O5  non d ame      59.446 198.351 164.656  0.00  0.00    -0.293 OA
ATOM      2  C1  non d ame      53.153 203.942 164.689  0.00  0.00     0.001 C 
ATOM      3  C2  non d ame      54.655 204.107 164.277  0.00  0.00     0.002 C 
ATOM      4  C3  non d ame      55.659 203.329 165.192  0.00  0.00    -0.002 C 
ATOM      5  C4  non d ame      55.350 201.785 165.112  0.00  0.00     0.031 C 
ATOM      6  C5  non d ame      52.443 204.934 163.668  0.00  0.00     0.128 C 
ATOM      7  C6  non d ame      52.845 202.406 164.526  0.00  0.00     0.045 C 
ATOM      8  C7  non d ame      56.399 200.889 165.924  0.00  0.00    -0.014 C 
ATOM      9  C8  non d ame      53.814 201.463 165.320  0.00  0.00     0.124 C 
ATOM     10  C9  non d ame      54.832 205.624 164.104  0.00  0.00     0.009 C 
ATOM     11  C10 non d ame      53.536 206.036 163.378  0.00  0.00     0.047 C 
ATOM     12  C11 non d ame      57.137 203.611 164.798  0.00  0.00     0.010 C 
ATOM     13  C12 non d ame      52.853 204.392 166.174  0.00  0.00     0.019 C 
ATOM     14  C13 non d ame      57.792 201.328 165.577  0.00  0.00    -0.068 C 
ATOM     15  C14 non d ame      58.117 202.761 165.635  0.00  0.00     0.035 C 
ATOM     16  C15 non d ame      56.174 199.367 165.536  0.00  0.00     0.022 C 
ATOM     17  C16 non d ame      56.243 201.029 167.482  0.00  0.00     0.020 C 
ATOM     18  C18 non d ame      57.402 198.475 165.843  0.00  0.00     0.084 C 
ATOM     19  C19 non d ame      58.769 200.453 165.235  0.00  0.00     0.053 C 
ATOM     20  C20 non d ame      58.593 199.081 165.215  0.00  0.00     0.149 C 
ENDROOT
BRANCH   6  21
ATOM     21  O1  non d ame      52.226 204.286 162.403  0.00  0.00    -0.381 OA
ATOM     22  H23 non d ame      52.904 204.638 161.789  0.00  0.00     0.211 HD
ENDBRANCH   6  21
BRANCH   6  23
ATOM     23  C17 non d ame      51.118 205.516 164.101  0.00  0.00     0.185 C 
ATOM     24  O3  non d ame      51.011 206.749 164.310  0.00  0.00    -0.292 OA
BRANCH  23  25
ATOM     25  C21 non d ame      49.886 204.727 164.342  0.00  0.00     0.245 C 
BRANCH  25  26
ATOM     26  O4  non d ame      49.214 204.491 163.114  0.00  0.00    -0.393 OA
ATOM     27  H30 non d ame      49.840 204.781 162.417  0.00  0.00     0.209 HD
ENDBRANCH  25  26
ENDBRANCH  23  25
ENDBRANCH   6  23
BRANCH   9  28
ATOM     28  O2  non d ame      53.428 201.440 166.693  0.00  0.00    -0.395 OA
ATOM     29  H26 non d ame      52.492 201.735 166.711  0.00  0.00     0.210 HD
ENDBRANCH   9  28
TORSDOF 5
ENDMDL
MODEL 2
REMARK VINA RESULT:      -6.9     51.841     53.121
REMARK  5 active torsions:
REMARK  status: ('A' for Active; 'I' for Inactive)
REMARK    1  A    between atoms: C5_10  and  O1_1 
REMARK    2  A    between atoms: C8_13  and  O2_2 
REMARK    3  A    between atoms: O4_4  and  C21_26 
REMARK    4  A    between atoms: C5_10  and  C17_22 
REMARK    5  A    between atoms: C17_22  and  C21_26 
ROOT
ATOM      1  O5  non d ame      46.044 186.457 118.579  0.00  0.00    -0.293 OA
ATOM      2  C1  non d ame      39.600 190.040 114.518  0.00  0.00     0.001 C 
ATOM      3  C2  non d ame      40.577 188.902 114.067  0.00  0.00     0.002 C 
ATOM      4  C3  non d ame      42.060 189.115 114.521  0.00  0.00    -0.002 C 
ATOM      5  C4  non d ame      42.125 189.150 116.096  0.00  0.00     0.031 C 
ATOM      6  C5  non d ame      38.253 189.590 113.802  0.00  0.00     0.128 C 
ATOM      7  C6  non d ame      39.620 190.004 116.093  0.00  0.00     0.045 C 
ATOM      8  C7  non d ame      43.618 189.246 116.664  0.00  0.00    -0.014 C 
ATOM      9  C8  non d ame      41.050 190.126 116.725  0.00  0.00     0.124 C 
ATOM     10  C9  non d ame      40.279 188.723 112.570  0.00  0.00     0.009 C 
ATOM     11  C10 non d ame      38.740 188.810 112.519  0.00  0.00     0.047 C 
ATOM     12  C11 non d ame      43.000 188.010 113.960  0.00  0.00     0.010 C 
ATOM     13  C12 non d ame      40.027 191.475 114.012  0.00  0.00     0.019 C 
ATOM     14  C13 non d ame      44.477 188.232 115.965  0.00  0.00    -0.068 C 
ATOM     15  C14 non d ame      44.439 188.167 114.496  0.00  0.00     0.035 C 
ATOM     16  C15 non d ame      43.586 188.976 118.227  0.00  0.00     0.022 C 
ATOM     17  C16 non d ame      44.274 190.655 116.421  0.00  0.00     0.020 C 
ATOM     18  C18 non d ame      44.961 188.551 118.797  0.00  0.00     0.084 C 
ATOM     19  C19 non d ame      45.303 187.390 116.633  0.00  0.00     0.053 C 
ATOM     20  C20 non d ame      45.468 187.411 118.006  0.00  0.00     0.149 C 
ENDROOT
BRANCH   6  21
ATOM     21  O1  non d ame      37.564 188.607 114.594  0.00  0.00    -0.381 OA
ATOM     22  H23 non d ame      36.733 188.398 114.118  0.00  0.00     0.211 HD
ENDBRANCH   6  21
BRANCH   6  23
ATOM     23  C17 non d ame      37.258 190.682 113.487  0.00  0.00     0.185 C 
ATOM     24  O3  non d ame      37.113 191.079 112.305  0.00  0.00    -0.292 OA
BRANCH  23  25
ATOM     25  C21 non d ame      36.421 191.380 114.493  0.00  0.00     0.245 C 
BRANCH  25  26
ATOM     26  O4  non d ame      35.285 190.590 114.810  0.00  0.00    -0.393 OA
ATOM     27  H30 non d ame      35.307 190.486 115.784  0.00  0.00     0.209 HD
ENDBRANCH  25  26
ENDBRANCH  23  25
ENDBRANCH   6  23
BRANCH   9  28
ATOM     28  O2  non d ame      41.458 191.493 116.707  0.00  0.00    -0.395 OA
ATOM     29  H26 non d ame      42.247 191.527 116.124  0.00  0.00     0.210 HD
ENDBRANCH   9  28
TORSDOF 5
ENDMDL
MODEL 3
REMARK VINA RESULT:      -6.9     18.229     20.707
REMARK  5 active torsions:
REMARK  status: ('A' for Active; 'I' for Inactive)
REMARK    1  A    between atoms: C5_10  and  O1_1 
REMARK    2  A    between atoms: C8_13  and  O2_2 
REMARK    3  A    between atoms: O4_4  and  C21_26 
REMARK    4  A    between atoms: C5_10  and  C17_22 
REMARK    5  A    between atoms: C17_22  and  C21_26 
ROOT
ATOM      1  O5  non d ame      56.924 181.050 161.951  0.00  0.00    -0.293 OA
ATOM      2  C1  non d ame      63.616 185.778 160.024  0.00  0.00     0.001 C 
ATOM      3  C2  non d ame      62.289 186.152 160.768  0.00  0.00     0.002 C 
ATOM      4  C3  non d ame      61.010 185.472 160.176  0.00  0.00    -0.002 C 
ATOM      5  C4  non d ame      61.150 183.905 160.290  0.00  0.00     0.031 C 
ATOM      6  C5  non d ame      64.663 186.712 160.774  0.00  0.00     0.128 C 
ATOM      7  C6  non d ame      63.776 184.222 160.219  0.00  0.00     0.045 C 
ATOM      8  C7  non d ame      59.839 183.118 159.817  0.00  0.00    -0.014 C 
ATOM      9  C8  non d ame      62.541 183.380 159.747  0.00  0.00     0.124 C 
ATOM     10  C9  non d ame      62.335 187.685 160.869  0.00  0.00     0.009 C 
ATOM     11  C10 non d ame      63.809 187.956 161.236  0.00  0.00     0.047 C 
ATOM     12  C11 non d ame      59.715 185.958 160.889  0.00  0.00     0.010 C 
ATOM     13  C12 non d ame      63.593 186.123 158.482  0.00  0.00     0.019 C 
ATOM     14  C13 non d ame      58.633 183.747 160.453  0.00  0.00    -0.068 C 
ATOM     15  C14 non d ame      58.470 185.207 160.371  0.00  0.00     0.035 C 
ATOM     16  C15 non d ame      59.975 181.598 160.249  0.00  0.00     0.022 C 
ATOM     17  C16 non d ame      59.623 183.172 158.261  0.00  0.00     0.020 C 
ATOM     18  C18 non d ame      58.615 180.860 160.307  0.00  0.00     0.084 C 
ATOM     19  C19 non d ame      57.675 183.020 161.079  0.00  0.00     0.053 C 
ATOM     20  C20 non d ame      57.692 181.639 161.155  0.00  0.00     0.149 C 
ENDROOT
BRANCH   6  21
ATOM     21  O1  non d ame      65.107 186.095 161.995  0.00  0.00    -0.381 OA
ATOM     22  H23 non d ame      66.066 186.283 162.070  0.00  0.00     0.211 HD
ENDBRANCH   6  21
BRANCH   6  23
ATOM     23  C17 non d ame      65.900 187.099 159.998  0.00  0.00     0.185 C 
ATOM     24  O3  non d ame      66.790 186.244 159.767  0.00  0.00    -0.292 OA
BRANCH  23  25
ATOM     25  C21 non d ame      66.186 188.461 159.487  0.00  0.00     0.245 C 
BRANCH  25  26
ATOM     26  O4  non d ame      66.289 188.435 158.071  0.00  0.00    -0.393 OA
ATOM     27  H30 non d ame      65.974 189.315 157.774  0.00  0.00     0.209 HD
ENDBRANCH  25  26
ENDBRANCH  23  25
ENDBRANCH   6  23
BRANCH   9  28
ATOM     28  O2  non d ame      62.574 183.250 158.327  0.00  0.00    -0.395 OA
ATOM     29  H26 non d ame      63.147 183.981 158.008  0.00  0.00     0.210 HD
ENDBRANCH   9  28
TORSDOF 5
ENDMDL
MODEL 4
REMARK VINA RESULT:      -6.9     45.331     46.738
REMARK  5 active torsions:
REMARK  status: ('A' for Active; 'I' for Inactive)
REMARK    1  A    between atoms: C5_10  and  O1_1 
REMARK    2  A    between atoms: C8_13  and  O2_2 
REMARK    3  A    between atoms: O4_4  and  C21_26 
REMARK    4  A    between atoms: C5_10  and  C17_22 
REMARK    5  A    between atoms: C17_22  and  C21_26 
ROOT
ATOM      1  O5  non d ame      25.195 170.709 150.227  0.00  0.00    -0.293 OA
ATOM      2  C1  non d ame      20.464 176.612 146.535  0.00  0.00     0.001 C 
ATOM      3  C2  non d ame      21.053 176.544 147.985  0.00  0.00     0.002 C 
ATOM      4  C3  non d ame      21.021 175.114 148.622  0.00  0.00    -0.002 C 
ATOM      5  C4  non d ame      21.892 174.132 147.748  0.00  0.00     0.031 C 
ATOM      6  C5  non d ame      20.528 178.176 146.250  0.00  0.00     0.128 C 
ATOM      7  C6  non d ame      21.397 175.687 145.665  0.00  0.00     0.045 C 
ATOM      8  C7  non d ame      22.019 172.668 148.381  0.00  0.00    -0.014 C 
ATOM      9  C8  non d ame      21.545 174.223 146.207  0.00  0.00     0.124 C 
ATOM     10  C9  non d ame      20.364 177.701 148.725  0.00  0.00     0.009 C 
ATOM     11  C10 non d ame      20.388 178.834 147.678  0.00  0.00     0.047 C 
ATOM     12  C11 non d ame      21.523 175.127 150.094  0.00  0.00     0.010 C 
ATOM     13  C12 non d ame      18.970 176.107 146.437  0.00  0.00     0.019 C 
ATOM     14  C13 non d ame      22.374 172.790 149.835  0.00  0.00    -0.068 C 
ATOM     15  C14 non d ame      21.587 173.700 150.681  0.00  0.00     0.035 C 
ATOM     16  C15 non d ame      23.140 171.869 147.593  0.00  0.00     0.022 C 
ATOM     17  C16 non d ame      20.679 171.850 148.299  0.00  0.00     0.020 C 
ATOM     18  C18 non d ame      23.702 170.667 148.391  0.00  0.00     0.084 C 
ATOM     19  C19 non d ame      23.377 172.077 150.404  0.00  0.00     0.053 C 
ATOM     20  C20 non d ame      24.135 171.145 149.719  0.00  0.00     0.149 C 
ENDROOT
BRANCH   6  21
ATOM     21  O1  non d ame      21.840 178.554 145.797  0.00  0.00    -0.381 OA
ATOM     22  H23 non d ame      21.888 179.530 145.865  0.00  0.00     0.211 HD
ENDBRANCH   6  21
BRANCH   6  23
ATOM     23  C17 non d ame      19.538 178.722 145.248  0.00  0.00     0.185 C 
ATOM     24  O3  non d ame      19.554 178.311 144.062  0.00  0.00    -0.292 OA
BRANCH  23  25
ATOM     25  C21 non d ame      18.525 179.763 145.541  0.00  0.00     0.245 C 
BRANCH  25  26
ATOM     26  O4  non d ame      17.283 179.154 145.863  0.00  0.00    -0.393 OA
ATOM     27  H30 non d ame      16.944 179.653 146.636  0.00  0.00     0.209 HD
ENDBRANCH  25  26
ENDBRANCH  23  25
ENDBRANCH   6  23
BRANCH   9  28
ATOM     28  O2  non d ame      20.388 173.469 145.848  0.00  0.00    -0.395 OA
ATOM     29  H26 non d ame      20.443 172.638 146.368  0.00  0.00     0.210 HD
ENDBRANCH   9  28
TORSDOF 5
ENDMDL
MODEL 5
REMARK VINA RESULT:      -6.8     23.887     27.259
REMARK  5 active torsions:
REMARK  status: ('A' for Active; 'I' for Inactive)
REMARK    1  A    between atoms: C5_10  and  O1_1 
REMARK    2  A    between atoms: C8_13  and  O2_2 
REMARK    3  A    between atoms: O4_4  and  C21_26 
REMARK    4  A    between atoms: C5_10  and  C17_22 
REMARK    5  A    between atoms: C17_22  and  C21_26 
ROOT
ATOM      1  O5  non d ame      56.269 178.892 163.086  0.00  0.00    -0.293 OA
ATOM      2  C1  non d ame      48.906 175.073 164.519  0.00  0.00     0.001 C 
ATOM      3  C2  non d ame      49.240 176.348 163.673  0.00  0.00     0.002 C 
ATOM      4  C3  non d ame      50.330 177.273 164.312  0.00  0.00    -0.002 C 
ATOM      5  C4  non d ame      51.681 176.471 164.449  0.00  0.00     0.031 C 
ATOM      6  C5  non d ame      47.710 174.449 163.676  0.00  0.00     0.128 C 
ATOM      7  C6  non d ame      50.248 174.250 164.576  0.00  0.00     0.045 C 
ATOM      8  C7  non d ame      52.894 177.367 164.986  0.00  0.00    -0.014 C 
ATOM      9  C8  non d ame      51.478 175.054 165.123  0.00  0.00     0.124 C 
ATOM     10  C9  non d ame      47.865 176.946 163.337  0.00  0.00     0.009 C 
ATOM     11  C10 non d ame      47.028 175.698 162.992  0.00  0.00     0.047 C 
ATOM     12  C11 non d ame      50.545 178.570 163.481  0.00  0.00     0.010 C 
ATOM     13  C12 non d ame      48.418 175.400 165.987  0.00  0.00     0.019 C 
ATOM     14  C13 non d ame      52.935 178.653 164.213  0.00  0.00    -0.068 C 
ATOM     15  C14 non d ame      51.693 179.426 164.060  0.00  0.00     0.035 C 
ATOM     16  C15 non d ame      54.244 176.555 164.803  0.00  0.00     0.022 C 
ATOM     17  C16 non d ame      52.748 177.745 166.505  0.00  0.00     0.020 C 
ATOM     18  C18 non d ame      55.501 177.460 164.806  0.00  0.00     0.084 C 
ATOM     19  C19 non d ame      54.077 179.142 163.670  0.00  0.00     0.053 C 
ATOM     20  C20 non d ame      55.311 178.533 163.810  0.00  0.00     0.149 C 
ENDROOT
BRANCH   6  21
ATOM     21  O1  non d ame      48.218 173.662 162.585  0.00  0.00    -0.381 OA
ATOM     22  H23 non d ame      49.164 173.900 162.487  0.00  0.00     0.211 HD
ENDBRANCH   6  21
BRANCH   6  23
ATOM     23  C17 non d ame      46.731 173.581 164.431  0.00  0.00     0.185 C 
ATOM     24  O3  non d ame      45.794 174.108 165.080  0.00  0.00    -0.292 OA
BRANCH  23  25
ATOM     25  C21 non d ame      46.795 172.102 164.505  0.00  0.00     0.245 C 
BRANCH  25  26
ATOM     26  O4  non d ame      45.489 171.555 164.398  0.00  0.00    -0.393 OA
ATOM     27  H30 non d ame      45.622 170.615 164.154  0.00  0.00     0.209 HD
ENDBRANCH  25  26
ENDBRANCH  23  25
ENDBRANCH   6  23
BRANCH   9  28
ATOM     28  O2  non d ame      51.405 175.116 166.546  0.00  0.00    -0.395 OA
ATOM     29  H26 non d ame      51.207 174.201 166.842  0.00  0.00     0.210 HD
ENDBRANCH   9  28
TORSDOF 5
ENDMDL
MODEL 6
REMARK VINA RESULT:      -6.7     28.448     31.625
REMARK  5 active torsions:
REMARK  status: ('A' for Active; 'I' for Inactive)
REMARK    1  A    between atoms: C5_10  and  O1_1 
REMARK    2  A    between atoms: C8_13  and  O2_2 
REMARK    3  A    between atoms: O4_4  and  C21_26 
REMARK    4  A    between atoms: C5_10  and  C17_22 
REMARK    5  A    between atoms: C17_22  and  C21_26 
ROOT
ATOM      1  O5  non d ame      65.842 188.972 145.091  0.00  0.00    -0.293 OA
ATOM      2  C1  non d ame      62.824 182.380 140.814  0.00  0.00     0.001 C 
ATOM      3  C2  non d ame      63.031 182.582 142.354  0.00  0.00     0.002 C 
ATOM      4  C3  non d ame      64.341 183.354 142.727  0.00  0.00    -0.002 C 
ATOM      5  C4  non d ame      64.294 184.799 142.097  0.00  0.00     0.031 C 
ATOM      6  C5  non d ame      61.514 181.477 140.796  0.00  0.00     0.128 C 
ATOM      7  C6  non d ame      62.701 183.833 140.218  0.00  0.00     0.045 C 
ATOM      8  C7  non d ame      65.539 185.712 142.520  0.00  0.00    -0.014 C 
ATOM      9  C8  non d ame      63.903 184.779 140.564  0.00  0.00     0.124 C 
ATOM     10  C9  non d ame      62.798 181.185 142.950  0.00  0.00     0.009 C 
ATOM     11  C10 non d ame      61.579 180.676 142.155  0.00  0.00     0.047 C 
ATOM     12  C11 non d ame      64.544 183.435 144.267  0.00  0.00     0.010 C 
ATOM     13  C12 non d ame      64.016 181.614 140.113  0.00  0.00     0.019 C 
ATOM     14  C13 non d ame      65.735 185.618 144.005  0.00  0.00    -0.068 C 
ATOM     15  C14 non d ame      65.780 184.286 144.629  0.00  0.00     0.035 C 
ATOM     16  C15 non d ame      65.242 187.208 142.085  0.00  0.00     0.022 C 
ATOM     17  C16 non d ame      66.885 185.259 141.845  0.00  0.00     0.020 C 
ATOM     18  C18 non d ame      66.098 188.244 142.854  0.00  0.00     0.084 C 
ATOM     19  C19 non d ame      65.898 186.710 144.791  0.00  0.00     0.053 C 
ATOM     20  C20 non d ame      65.941 188.003 144.302  0.00  0.00     0.149 C 
ENDROOT
BRANCH   6  21
ATOM     21  O1  non d ame      60.336 182.295 140.905  0.00  0.00    -0.381 OA
ATOM     22  H23 non d ame      59.846 182.191 140.063  0.00  0.00     0.211 HD
ENDBRANCH   6  21
BRANCH   6  23
ATOM     23  C17 non d ame      61.325 180.585 139.592  0.00  0.00     0.185 C 
ATOM     24  O3  non d ame      61.358 179.337 139.724  0.00  0.00    -0.292 OA
BRANCH  23  25
ATOM     25  C21 non d ame      61.125 181.067 138.205  0.00  0.00     0.245 C 
BRANCH  25  26
ATOM     26  O4  non d ame      60.244 182.181 138.202  0.00  0.00    -0.393 OA
ATOM     27  H30 non d ame      60.523 182.727 137.437  0.00  0.00     0.209 HD
ENDBRANCH  25  26
ENDBRANCH  23  25
ENDBRANCH   6  23
BRANCH   9  28
ATOM     28  O2  non d ame      65.003 184.474 139.710  0.00  0.00    -0.395 OA
ATOM     29  H26 non d ame      64.637 184.467 138.799  0.00  0.00     0.210 HD
ENDBRANCH   9  28
TORSDOF 5
ENDMDL
MODEL 7
REMARK VINA RESULT:      -6.7     48.283     49.505
REMARK  5 active torsions:
REMARK  status: ('A' for Active; 'I' for Inactive)
REMARK    1  A    between atoms: C5_10  and  O1_1 
REMARK    2  A    between atoms: C8_13  and  O2_2 
REMARK    3  A    between atoms: O4_4  and  C21_26 
REMARK    4  A    between atoms: C5_10  and  C17_22 
REMARK    5  A    between atoms: C17_22  and  C21_26 
ROOT
ATOM      1  O5  non d ame      53.899 173.072 127.353  0.00  0.00    -0.293 OA
ATOM      2  C1  non d ame      46.565 175.529 124.031  0.00  0.00     0.001 C 
ATOM      3  C2  non d ame      46.968 174.179 124.715  0.00  0.00     0.002 C 
ATOM      4  C3  non d ame      48.413 173.690 124.365  0.00  0.00    -0.002 C 
ATOM      5  C4  non d ame      49.461 174.761 124.858  0.00  0.00     0.031 C 
ATOM      6  C5  non d ame      45.045 175.660 124.480  0.00  0.00     0.128 C 
ATOM      7  C6  non d ame      47.574 176.598 124.599  0.00  0.00     0.045 C 
ATOM      8  C7  non d ame      50.980 174.299 124.651  0.00  0.00    -0.014 C 
ATOM      9  C8  non d ame      49.086 176.230 124.403  0.00  0.00     0.124 C 
ATOM     10  C9  non d ame      45.781 173.245 124.430  0.00  0.00     0.009 C 
ATOM     11  C10 non d ame      44.564 174.167 124.655  0.00  0.00     0.047 C 
ATOM     12  C11 non d ame      48.719 172.298 124.989  0.00  0.00     0.010 C 
ATOM     13  C12 non d ame      46.660 175.490 122.454  0.00  0.00     0.019 C 
ATOM     14  C13 non d ame      51.141 172.897 125.162  0.00  0.00    -0.068 C 
ATOM     15  C14 non d ame      50.179 171.871 124.727  0.00  0.00     0.035 C 
ATOM     16  C15 non d ame      51.926 175.299 125.440  0.00  0.00     0.022 C 
ATOM     17  C16 non d ame      51.415 174.295 123.140  0.00  0.00     0.020 C 
ATOM     18  C18 non d ame      53.324 174.703 125.736  0.00  0.00     0.084 C 
ATOM     19  C19 non d ame      52.151 172.532 125.988  0.00  0.00     0.053 C 
ATOM     20  C20 non d ame      53.148 173.397 126.404  0.00  0.00     0.149 C 
ENDROOT
BRANCH   6  21
ATOM     21  O1  non d ame      44.955 176.234 125.796  0.00  0.00    -0.381 OA
ATOM     22  H23 non d ame      45.875 176.358 126.110  0.00  0.00     0.211 HD
ENDBRANCH   6  21
BRANCH   6  23
ATOM     23  C17 non d ame      44.142 176.470 123.581  0.00  0.00     0.185 C 
ATOM     24  O3  non d ame      43.263 175.897 122.891  0.00  0.00    -0.292 OA
BRANCH  23  25
ATOM     25  C21 non d ame      44.219 177.940 123.406  0.00  0.00     0.245 C 
BRANCH  25  26
ATOM     26  O4  non d ame      43.937 178.590 124.638  0.00  0.00    -0.393 OA
ATOM     27  H30 non d ame      43.437 177.933 125.167  0.00  0.00     0.209 HD
ENDBRANCH  25  26
ENDBRANCH  23  25
ENDBRANCH   6  23
BRANCH   9  28
ATOM     28  O2  non d ame      49.470 176.515 123.060  0.00  0.00    -0.395 OA
ATOM     29  H26 non d ame      50.411 176.791 123.106  0.00  0.00     0.210 HD
ENDBRANCH   9  28
TORSDOF 5
ENDMDL
MODEL 8
REMARK VINA RESULT:      -6.6     18.732     23.316
REMARK  5 active torsions:
REMARK  status: ('A' for Active; 'I' for Inactive)
REMARK    1  A    between atoms: C5_10  and  O1_1 
REMARK    2  A    between atoms: C8_13  and  O2_2 
REMARK    3  A    between atoms: O4_4  and  C21_26 
REMARK    4  A    between atoms: C5_10  and  C17_22 
REMARK    5  A    between atoms: C17_22  and  C21_26 
ROOT
ATOM      1  O5  non d ame      54.644 187.066 158.020  0.00  0.00    -0.293 OA
ATOM      2  C1  non d ame      57.507 179.470 160.247  0.00  0.00     0.001 C 
ATOM      3  C2  non d ame      58.220 180.864 160.250  0.00  0.00     0.002 C 
ATOM      4  C3  non d ame      57.861 181.770 159.025  0.00  0.00    -0.002 C 
ATOM      5  C4  non d ame      56.312 182.069 159.033  0.00  0.00     0.031 C 
ATOM      6  C5  non d ame      58.175 178.779 161.515  0.00  0.00     0.128 C 
ATOM      7  C6  non d ame      55.967 179.792 160.336  0.00  0.00     0.045 C 
ATOM      8  C7  non d ame      55.861 183.087 157.883  0.00  0.00    -0.014 C 
ATOM      9  C8  non d ame      55.443 180.760 159.219  0.00  0.00     0.124 C 
ATOM     10  C9  non d ame      59.697 180.530 160.517  0.00  0.00     0.009 C 
ATOM     11  C10 non d ame      59.606 179.440 161.605  0.00  0.00     0.047 C 
ATOM     12  C11 non d ame      58.674 183.096 159.029  0.00  0.00     0.010 C 
ATOM     13  C12 non d ame      57.800 178.614 158.951  0.00  0.00     0.019 C 
ATOM     14  C13 non d ame      56.787 184.268 157.881  0.00  0.00    -0.068 C 
ATOM     15  C14 non d ame      58.239 184.028 157.878  0.00  0.00     0.035 C 
ATOM     16  C15 non d ame      54.368 183.543 158.166  0.00  0.00     0.022 C 
ATOM     17  C16 non d ame      55.919 182.449 156.447  0.00  0.00     0.020 C 
ATOM     18  C18 non d ame      53.991 184.863 157.451  0.00  0.00     0.084 C 
ATOM     19  C19 non d ame      56.340 185.547 157.856  0.00  0.00     0.053 C 
ATOM     20  C20 non d ame      55.001 185.886 157.789  0.00  0.00     0.149 C 
ENDROOT
BRANCH   6  21
ATOM     21  O1  non d ame      57.505 179.183 162.722  0.00  0.00    -0.381 OA
ATOM     22  H23 non d ame      57.848 180.073 162.946  0.00  0.00     0.211 HD
ENDBRANCH   6  21
BRANCH   6  23
ATOM     23  C17 non d ame      58.220 177.269 161.517  0.00  0.00     0.185 C 
ATOM     24  O3  non d ame      59.311 176.673 161.339  0.00  0.00    -0.292 OA
BRANCH  23  25
ATOM     25  C21 non d ame      57.041 176.388 161.689  0.00  0.00     0.245 C 
BRANCH  25  26
ATOM     26  O4  non d ame      56.724 176.266 163.067  0.00  0.00    -0.393 OA
ATOM     27  H30 non d ame      55.745 176.298 163.111  0.00  0.00     0.209 HD
ENDBRANCH  25  26
ENDBRANCH  23  25
ENDBRANCH   6  23
BRANCH   9  28
ATOM     28  O2  non d ame      55.266 180.029 158.007  0.00  0.00    -0.395 OA
ATOM     29  H26 non d ame      55.865 179.255 158.075  0.00  0.00     0.210 HD
ENDBRANCH   9  28
TORSDOF 5
ENDMDL
MODEL 9
REMARK VINA RESULT:      -6.6     51.160     53.683
REMARK  5 active torsions:
REMARK  status: ('A' for Active; 'I' for Inactive)
REMARK    1  A    between atoms: C5_10  and  O1_1 
REMARK    2  A    between atoms: C8_13  and  O2_2 
REMARK    3  A    between atoms: O4_4  and  C21_26 
REMARK    4  A    between atoms: C5_10  and  C17_22 
REMARK    5  A    between atoms: C17_22  and  C21_26 
ROOT
ATOM      1  O5  non d ame      18.079 168.083 138.658  0.00  0.00    -0.293 OA
ATOM      2  C1  non d ame      15.553 175.061 142.632  0.00  0.00     0.001 C 
ATOM      3  C2  non d ame      16.974 174.638 142.128  0.00  0.00     0.002 C 
ATOM      4  C3  non d ame      17.297 173.119 142.323  0.00  0.00    -0.002 C 
ATOM      5  C4  non d ame      16.266 172.255 141.501  0.00  0.00     0.031 C 
ATOM      6  C5  non d ame      15.603 176.635 142.411  0.00  0.00     0.128 C 
ATOM      7  C6  non d ame      14.539 174.245 141.743  0.00  0.00     0.045 C 
ATOM      8  C7  non d ame      16.583 170.686 141.542  0.00  0.00    -0.014 C 
ATOM      9  C8  non d ame      14.767 172.694 141.758  0.00  0.00     0.124 C 
ATOM     10  C9  non d ame      17.917 175.682 142.746  0.00  0.00     0.009 C 
ATOM     11  C10 non d ame      17.132 176.997 142.564  0.00  0.00     0.047 C 
ATOM     12  C11 non d ame      18.755 172.779 141.900  0.00  0.00     0.010 C 
ATOM     13  C12 non d ame      15.303 174.738 144.159  0.00  0.00     0.019 C 
ATOM     14  C13 non d ame      18.040 170.472 141.253  0.00  0.00    -0.068 C 
ATOM     15  C14 non d ame      19.032 171.264 141.997  0.00  0.00     0.035 C 
ATOM     16  C15 non d ame      15.681 169.958 140.459  0.00  0.00     0.022 C 
ATOM     17  C16 non d ame      16.289 170.041 142.945  0.00  0.00     0.020 C 
ATOM     18  C18 non d ame      16.227 168.568 140.050  0.00  0.00     0.084 C 
ATOM     19  C19 non d ame      18.480 169.561 140.351  0.00  0.00     0.053 C 
ATOM     20  C20 non d ame      17.640 168.718 139.646  0.00  0.00     0.149 C 
ENDROOT
BRANCH   6  21
ATOM     21  O1  non d ame      15.281 176.965 141.048  0.00  0.00    -0.381 OA
ATOM     22  H23 non d ame      15.720 176.291 140.487  0.00  0.00     0.211 HD
ENDBRANCH   6  21
BRANCH   6  23
ATOM     23  C17 non d ame      14.706 177.471 143.293  0.00  0.00     0.185 C 
ATOM     24  O3  non d ame      15.208 178.288 144.104  0.00  0.00    -0.292 OA
BRANCH  23  25
ATOM     25  C21 non d ame      13.226 177.391 143.312  0.00  0.00     0.245 C 
BRANCH  25  26
ATOM     26  O4  non d ame      12.728 177.319 141.984  0.00  0.00    -0.393 OA
ATOM     27  H30 non d ame      12.898 176.398 141.695  0.00  0.00     0.209 HD
ENDBRANCH  25  26
ENDBRANCH  23  25
ENDBRANCH   6  23
BRANCH   9  28
ATOM     28  O2  non d ame      14.222 172.149 142.958  0.00  0.00    -0.395 OA
ATOM     29  H26 non d ame      14.278 172.868 143.625  0.00  0.00     0.210 HD
ENDBRANCH   9  28
TORSDOF 5
ENDMDL
