@<TRIPOS>MOLECULE
5754
56 59 1
SMALL
USER_CHARGES
@<TRIPOS>ATOM
1	O1    -2.2084     3.0740     7.4530	O.3	1	noname	-0.3813
2	O2    -4.6949     1.2343     3.1651	O.3	1	noname	-0.3926
3	O3    -4.7000     1.4862     9.2351	O.2	1	noname	-0.2781
4	O4    -5.8360     3.5729     7.1759	O.3	1	noname	-0.3883
5	O5     0.7651    -0.2520    -1.0632	O.2	1	noname	-0.3012
6	C1    -3.3692     1.3378     6.0949	C.3	1	noname	0.0091
7	C2    -2.0954     0.4658     5.8309	C.3	1	noname	-0.0293
8	C3    -2.1449    -0.3527     4.4983	C.3	1	noname	-0.0315
9	C4    -2.2566     0.6399     3.2778	C.3	1	noname	-0.0029
10	C5    -3.0525     1.9138     7.5437	C.3	1	noname	0.1308
11	C6    -3.4161     2.3732     4.9082	C.3	1	noname	-0.0178
12	C7    -2.1969    -0.0955     1.8584	C.3	1	noname	-0.0052
13	C8    -3.3933     1.7232     3.4806	C.3	1	noname	0.0587
14	C9    -1.8728    -0.2839     7.1536	C.3	1	noname	-0.0463
15	C10    -2.1493     0.8055     8.2106	C.3	1	noname	-0.0160
16	C11    -0.9021    -1.2751     4.3397	C.3	1	noname	-0.0460
17	C12    -4.7100     0.5019     6.1283	C.3	1	noname	-0.0561
18	C13    -1.0465    -1.0613     1.8527	C.2	1	noname	-0.0340
19	C14    -0.9067    -1.9997     2.9774	C.3	1	noname	-0.0307
20	C15    -2.0177     1.0000     0.7253	C.3	1	noname	-0.0365
21	C16    -3.4968    -0.9233     1.5436	C.3	1	noname	-0.0555
22	C17    -4.2421     2.2969     8.3933	C.2	1	noname	0.1742
23	C18    -1.4555     0.4205    -0.5961	C.3	1	noname	0.0110
24	C19    -0.1461    -1.1179     0.8419	C.2	1	noname	0.0227
25	C20    -0.2213    -0.3307    -0.2929	C.2	1	noname	0.0936
26	C21    -4.9682     3.5863     8.3005	C.3	1	noname	0.1047
27	H1    -1.2223     1.1295     5.7345	H	1	noname	0.0312
28	H2    -3.0065    -1.0179     4.5149	H	1	noname	0.0310
29	H3    -1.3319     1.2295     3.3305	H	1	noname	0.0341
30	H4    -2.5431     3.0304     4.9627	H	1	noname	0.0300
31	H5    -4.2961     3.0155     5.0036	H	1	noname	0.0300
32	H6    -3.2112     2.5358     2.7710	H	1	noname	0.0603
33	H7    -2.5649    -1.1246     7.2477	H	1	noname	0.0271
34	H8    -0.8519    -0.6629     7.2399	H	1	noname	0.0271
35	H9    -1.1905     1.2276     8.5292	H	1	noname	0.0301
36	H10    -2.5903     0.3345     9.0899	H	1	noname	0.0301
37	H11     0.0193    -0.6939     4.4375	H	1	noname	0.0273
38	H12    -0.9029    -2.0372     5.1252	H	1	noname	0.0273
39	H13    -5.5752     1.1618     6.2054	H	1	noname	0.0237
40	H14    -4.7337    -0.1816     6.9779	H	1	noname	0.0237
41	H15    -4.8635    -0.1011     5.2394	H	1	noname	0.0237
42	H16     0.0064    -2.6011     2.9235	H	1	noname	0.0313
43	H17    -1.7386    -2.7068     2.9534	H	1	noname	0.0313
44	H18    -2.9624     1.5054     0.5095	H	1	noname	0.0280
45	H19    -1.3158     1.7740     1.0543	H	1	noname	0.0280
46	H20    -3.3454    -1.5928     0.6950	H	1	noname	0.0239
47	H21    -3.8021    -1.5331     2.3934	H	1	noname	0.0239
48	H22    -4.3353    -0.2807     1.2820	H	1	noname	0.0239
49	H23    -2.7286     3.7633     6.9898	H	1	noname	0.2114
50	H24    -2.1831    -0.2572    -1.0485	H	1	noname	0.0350
51	H25    -1.2605     1.2262    -1.3104	H	1	noname	0.0350
52	H26    -5.2716     2.0269     3.1189	H	1	noname	0.2104
53	H27     0.6156    -1.7558     0.8929	H	1	noname	0.0659
54	H28    -4.2797     4.4303     8.2333	H	1	noname	0.0647
55	H29    -5.5878     3.7444     9.1881	H	1	noname	0.0647
56	H30    -6.3756     4.3874     7.2581	H	1	noname	0.2106
@<TRIPOS>BOND
1	10	1	1
2	1	49	1
3	13	2	1
4	2	52	1
5	3	22	2
6	4	26	1
7	4	56	1
8	5	25	2
9	6	7	1
10	6	10	1
11	6	11	1
12	6	17	1
13	7	8	1
14	7	14	1
15	7	27	1
16	8	9	1
17	8	16	1
18	8	28	1
19	9	12	1
20	9	13	1
21	9	29	1
22	10	15	1
23	10	22	1
24	11	13	1
25	11	30	1
26	11	31	1
27	12	18	1
28	12	20	1
29	12	21	1
30	13	32	1
31	14	15	1
32	14	33	1
33	14	34	1
34	15	35	1
35	15	36	1
36	16	19	1
37	16	37	1
38	16	38	1
39	17	39	1
40	17	40	1
41	17	41	1
42	18	19	1
43	18	24	2
44	19	42	1
45	19	43	1
46	20	23	1
47	20	44	1
48	20	45	1
49	21	46	1
50	21	47	1
51	21	48	1
52	22	26	1
53	23	25	1
54	23	50	1
55	23	51	1
56	24	25	1
57	24	53	1
58	26	54	1
59	26	55	1
@<TRIPOS>SUBSTRUCTURE
1	noname	1
