REMARK  5 active torsions:
REMARK  status: ('A' for Active; 'I' for Inactive)
REMARK    1  A    between atoms: C5_10  and  O1_1 
REMARK    2  A    between atoms: C8_13  and  O2_2 
REMARK    3  A    between atoms: C21_26  and  O4_4 
REMARK    4  A    between atoms: C17_22  and  C5_10 
REMARK    5  A    between atoms: C17_22  and  C21_26 
ROOT
HETATM    1  O5  ***     1     271.744 169.058  92.443  1.00  0.00    -0.293 OA
HETATM    2  C1  ***     1     265.758 164.338  88.872  1.00  0.00     0.001 C 
HETATM    3  C2  ***     1     266.591 164.104  90.178  1.00  0.00     0.002 C 
HETATM    4  C3  ***     1     268.090 164.540  90.069  1.00  0.00    -0.002 C 
HETATM    5  C4  ***     1     268.165 166.087  89.772  1.00  0.00     0.031 C 
HETATM    6  C5  ***     1     264.364 163.687  89.276  1.00  0.00     0.128 C 
HETATM    7  C6  ***     1     265.780 165.896  88.640  1.00  0.00     0.045 C 
HETATM    8  C7  ***     1     269.661 166.654  89.757  1.00  0.00    -0.014 C 
HETATM    9  C8  ***     1     267.217 166.522  88.581  1.00  0.00     0.124 C 
HETATM   10  C9  ***     1     266.267 162.656  90.576  1.00  0.00     0.009 C 
HETATM   11  C10 ***     1     264.748 162.566  90.317  1.00  0.00     0.047 C 
HETATM   12  C11 ***     1     268.889 164.191  91.357  1.00  0.00     0.010 C 
HETATM   13  C12 ***     1     266.351 163.600  87.606  1.00  0.00     0.019 C 
HETATM   14  C13 ***     1     270.390 166.153  90.971  1.00  0.00    -0.068 C 
HETATM   15  C14 ***     1     270.338 164.716  91.282  1.00  0.00     0.035 C 
HETATM   16  C15 ***     1     269.603 168.239  89.749  1.00  0.00     0.022 C 
HETATM   17  C16 ***     1     270.480 166.184  88.499  1.00  0.00     0.020 C 
HETATM   18  C18 ***     1     270.920 168.897  90.230  1.00  0.00     0.084 C 
HETATM   19  C19 ***     1     271.112 166.969  91.777  1.00  0.00     0.053 C 
HETATM   20  C20 ***     1     271.283 168.320  91.539  1.00  0.00     0.149 C 
ENDROOT
BRANCH   6  21
HETATM   21  C17 ***     1     263.505 163.174  88.144  1.00  0.00     0.184 C 
HETATM   22  O3  ***     1     263.544 161.960  87.827  1.00  0.00    -0.292 OA
BRANCH  21  23
HETATM   23  C21 ***     1     262.603 164.012  87.318  1.00  0.00     0.245 C 
BRANCH  23  24
HETATM   24  O4  ***     1     263.360 164.732  86.354  1.00  0.00    -0.393 OA
HETATM   25  H30 ***     1     262.696 165.148  85.765  1.00  0.00     0.209 HD
ENDBRANCH  23  24
ENDBRANCH  21  23
ENDBRANCH   6  21
BRANCH   6  26
HETATM   26  O1  ***     1     263.566 164.624  90.019  1.00  0.00    -0.381 OA
HETATM   27  H23 ***     1     263.359 165.362  89.409  1.00  0.00     0.211 HD
ENDBRANCH   6  26
BRANCH   9  28
HETATM   28  O2  ***     1     267.785 166.277  87.296  1.00  0.00    -0.395 OA
HETATM   29  H26 ***     1     267.223 166.769  86.660  1.00  0.00     0.210 HD
ENDBRANCH   9  28
TORSDOF 5
