REMARK  5 active torsions:
REMARK  status: ('A' for Active; 'I' for Inactive)
REMARK    1  A    between atoms: N1_3  and  C8_12 
REMARK    2  A    between atoms: C1_5  and  C2_6 
REMARK    3  A    between atoms: C1_5  and  C6_10 
REMARK    4  A    between atoms: C2_6  and  C5_9 
REMARK    5  A    between atoms: C5_9  and  C8_12 
ROOT
ATOM      1  O1  UNK     1     -67.656  45.218 211.413  1.00  0.00    -0.366 OA
ATOM      2  N2  UNK     1     -72.309  50.139 213.664  1.00  0.00    -0.191 NA
ATOM      3  C1  UNK     1     -67.402  45.444 212.836  1.00  0.00     0.116 C 
ATOM      4  C3  UNK     1     -68.402  46.497 213.218  1.00  0.00    -0.011 A 
ATOM      5  C4  UNK     1     -69.228  46.770 212.137  1.00  0.00    -0.023 A 
ATOM      6  C7  UNK     1     -68.847  45.920 210.986  1.00  0.00     0.209 C 
ATOM      7  C9  UNK     1     -68.573  47.153 214.428  1.00  0.00     0.012 A 
ATOM      8  C10 UNK     1     -70.246  47.704 212.225  1.00  0.00     0.032 A 
ATOM      9  C13 UNK     1     -69.593  48.101 214.532  1.00  0.00     0.023 A 
ATOM     10  C14 UNK     1     -70.424  48.376 213.436  1.00  0.00     0.045 A 
ATOM     11  C20 UNK     1     -71.464  49.348 213.561  1.00  0.00     0.099 C 
ENDROOT
BRANCH   3  12
ATOM     12  C2  UNK     1     -67.612  44.129 213.579  1.00  0.00     0.050 C 
BRANCH  12  13
ATOM     13  C5  UNK     1     -66.738  43.017 213.001  1.00  0.00     0.031 C 
BRANCH  13  14
ATOM     14  C8  UNK     1     -66.929  41.713 213.772  1.00  0.00     0.234 C 
BRANCH  14  15
ATOM     15  N1  UNK     1     -66.104  40.658 213.195  1.00  0.00    -0.079 N 
ATOM     16  C18 UNK     1     -66.445  40.449 211.786  1.00  0.00     0.269 C 
ATOM     17  C19 UNK     1     -66.261  39.411 213.945  1.00  0.00     0.269 C 
ATOM     18  HN  UNK     1     -65.136  40.943 213.250  1.00  0.00     0.278 HD
ENDBRANCH  14  15
ENDBRANCH  13  14
ENDBRANCH  12  13
ENDBRANCH   3  12
BRANCH   3  19
ATOM     19  C6  UNK     1     -65.990  45.911 212.959  1.00  0.00    -0.019 A 
ATOM     20  C11 UNK     1     -65.302  45.741 214.160  1.00  0.00     0.013 A 
ATOM     21  C15 UNK     1     -63.982  46.178 214.274  1.00  0.00     0.043 A 
ATOM     22  C17 UNK     1     -63.351  46.783 213.187  1.00  0.00     0.116 A 
ATOM     23  F1  UNK     1     -62.084  47.203 213.297  1.00  0.00    -0.206 F 
ATOM     24  C16 UNK     1     -64.040  46.952 211.986  1.00  0.00     0.043 A 
ATOM     25  C12 UNK     1     -65.360  46.516 211.872  1.00  0.00     0.013 A 
ENDBRANCH   3  19
TORSDOF 5
