MODEL 1
REMARK VINA RESULT:      -7.4      0.000      0.000
REMARK  5 active torsions:
REMARK  status: ('A' for Active; 'I' for Inactive)
REMARK    1  A    between atoms: N1_3  and  C8_12 
REMARK    2  A    between atoms: C1_5  and  C2_6 
REMARK    3  A    between atoms: C1_5  and  C6_10 
REMARK    4  A    between atoms: C2_6  and  C5_9 
REMARK    5  A    between atoms: C5_9  and  C8_12 
ROOT
ATOM      1  O1  UNK     1      19.663 176.777 146.137  1.00  0.00    -0.366 OA
ATOM      2  N2  UNK     1      24.060 182.255 144.874  1.00  0.00    -0.191 NA
ATOM      3  C1  UNK     1      20.341 177.096 147.394  1.00  0.00     0.116 C 
ATOM      4  C3  UNK     1      21.251 178.234 147.035  1.00  0.00    -0.011 A 
ATOM      5  C4  UNK     1      21.034 178.607 145.716  1.00  0.00    -0.023 A 
ATOM      6  C7  UNK     1      19.972 177.763 145.124  1.00  0.00     0.209 C 
ATOM      7  C9  UNK     1      22.189 178.894 147.816  1.00  0.00     0.012 A 
ATOM      8  C10 UNK     1      21.744 179.643 145.133  1.00  0.00     0.032 A 
ATOM      9  C13 UNK     1      22.916 179.938 147.242  1.00  0.00     0.023 A 
ATOM     10  C14 UNK     1      22.696 180.310 145.907  1.00  0.00     0.045 A 
ATOM     11  C20 UNK     1      23.447 181.383 145.337  1.00  0.00     0.099 C 
ENDROOT
BRANCH   3  12
ATOM     12  C2  UNK     1      19.287 177.482 148.426  1.00  0.00     0.050 C 
BRANCH  12  13
ATOM     13  C5  UNK     1      19.038 178.989 148.431  1.00  0.00     0.031 C 
BRANCH  13  14
ATOM     14  C8  UNK     1      17.638 179.312 148.949  1.00  0.00     0.234 C 
BRANCH  14  15
ATOM     15  N1  UNK     1      16.963 180.234 148.043  1.00  0.00    -0.079 N 
ATOM     16  C18 UNK     1      15.525 179.960 148.006  1.00  0.00     0.269 C 
ATOM     17  C19 UNK     1      17.531 180.146 146.698  1.00  0.00     0.269 C 
ATOM     18  HN  UNK     1      17.099 181.176 148.385  1.00  0.00     0.278 HD
ENDBRANCH  14  15
ENDBRANCH  13  14
ENDBRANCH  12  13
ENDBRANCH   3  12
BRANCH   3  19
ATOM     19  C6  UNK     1      21.080 175.870 147.815  1.00  0.00    -0.019 A 
ATOM     20  C11 UNK     1      21.131 175.514 149.162  1.00  0.00     0.013 A 
ATOM     21  C15 UNK     1      21.823 174.368 149.554  1.00  0.00     0.043 A 
ATOM     22  C17 UNK     1      22.462 173.578 148.599  1.00  0.00     0.116 A 
ATOM     23  F1  UNK     1      23.127 172.478 148.976  1.00  0.00    -0.206 F 
ATOM     24  C16 UNK     1      22.410 173.934 147.251  1.00  0.00     0.043 A 
ATOM     25  C12 UNK     1      21.719 175.080 146.859  1.00  0.00     0.013 A 
ENDBRANCH   3  19
TORSDOF 5
ENDMDL
MODEL 2
REMARK VINA RESULT:      -7.2     33.645     35.705
REMARK  5 active torsions:
REMARK  status: ('A' for Active; 'I' for Inactive)
REMARK    1  A    between atoms: N1_3  and  C8_12 
REMARK    2  A    between atoms: C1_5  and  C2_6 
REMARK    3  A    between atoms: C1_5  and  C6_10 
REMARK    4  A    between atoms: C2_6  and  C5_9 
REMARK    5  A    between atoms: C5_9  and  C8_12 
ROOT
ATOM      1  O1  UNK     1      50.859 176.206 167.571  1.00  0.00    -0.366 OA
ATOM      2  N2  UNK     1      45.584 172.798 164.180  1.00  0.00    -0.191 NA
ATOM      3  C1  UNK     1      50.238 177.161 166.653  1.00  0.00     0.116 C 
ATOM      4  C3  UNK     1      49.163 176.361 165.974  1.00  0.00    -0.011 A 
ATOM      5  C4  UNK     1      49.102 175.093 166.532  1.00  0.00    -0.023 A 
ATOM      6  C7  UNK     1      50.107 174.970 167.613  1.00  0.00     0.209 C 
ATOM      7  C9  UNK     1      48.303 176.731 164.951  1.00  0.00     0.012 A 
ATOM      8  C10 UNK     1      48.186 174.154 166.090  1.00  0.00     0.032 A 
ATOM      9  C13 UNK     1      47.376 175.794 164.491  1.00  0.00     0.023 A 
ATOM     10  C14 UNK     1      47.319 174.512 165.056  1.00  0.00     0.045 A 
ATOM     11  C20 UNK     1      46.362 173.566 164.574  1.00  0.00     0.099 C 
ENDROOT
BRANCH   3  12
ATOM     12  C2  UNK     1      49.686 178.325 167.468  1.00  0.00     0.050 C 
BRANCH  12  13
ATOM     13  C5  UNK     1      50.315 178.379 168.859  1.00  0.00     0.031 C 
BRANCH  13  14
ATOM     14  C8  UNK     1      51.387 179.463 168.935  1.00  0.00     0.234 C 
BRANCH  14  15
ATOM     15  N1  UNK     1      52.612 178.925 169.515  1.00  0.00    -0.079 N 
ATOM     16  C18 UNK     1      53.560 178.550 168.464  1.00  0.00     0.269 C 
ATOM     17  C19 UNK     1      52.317 177.771 170.367  1.00  0.00     0.269 C 
ATOM     18  HN  UNK     1      53.037 179.642 170.087  1.00  0.00     0.278 HD
ENDBRANCH  14  15
ENDBRANCH  13  14
ENDBRANCH  12  13
ENDBRANCH   3  12
BRANCH   3  19
ATOM     19  C6  UNK     1      51.303 177.619 165.713  1.00  0.00    -0.019 A 
ATOM     20  C11 UNK     1      52.290 176.729 165.291  1.00  0.00     0.013 A 
ATOM     21  C15 UNK     1      53.286 177.159 164.413  1.00  0.00     0.043 A 
ATOM     22  C17 UNK     1      53.292 178.477 163.957  1.00  0.00     0.116 A 
ATOM     23  F1  UNK     1      54.248 178.889 163.114  1.00  0.00    -0.206 F 
ATOM     24  C16 UNK     1      52.304 179.366 164.379  1.00  0.00     0.043 A 
ATOM     25  C12 UNK     1      51.309 178.937 165.258  1.00  0.00     0.013 A 
ENDBRANCH   3  19
TORSDOF 5
ENDMDL
MODEL 3
REMARK VINA RESULT:      -7.2     62.867     64.533
REMARK  5 active torsions:
REMARK  status: ('A' for Active; 'I' for Inactive)
REMARK    1  A    between atoms: N1_3  and  C8_12 
REMARK    2  A    between atoms: C1_5  and  C2_6 
REMARK    3  A    between atoms: C1_5  and  C6_10 
REMARK    4  A    between atoms: C2_6  and  C5_9 
REMARK    5  A    between atoms: C5_9  and  C8_12 
ROOT
ATOM      1  O1  UNK     1      49.606 175.982 206.321  1.00  0.00    -0.366 OA
ATOM      2  N2  UNK     1      45.155 170.499 205.294  1.00  0.00    -0.191 NA
ATOM      3  C1  UNK     1      49.275 175.946 204.897  1.00  0.00     0.116 C 
ATOM      4  C3  UNK     1      48.360 174.762 204.769  1.00  0.00    -0.011 A 
ATOM      5  C4  UNK     1      48.103 174.234 206.026  1.00  0.00    -0.023 A 
ATOM      6  C7  UNK     1      48.807 175.027 207.058  1.00  0.00     0.209 C 
ATOM      7  C9  UNK     1      47.793 174.205 203.632  1.00  0.00     0.012 A 
ATOM      8  C10 UNK     1      47.277 173.135 206.190  1.00  0.00     0.032 A 
ATOM      9  C13 UNK     1      46.961 173.093 203.781  1.00  0.00     0.023 A 
ATOM     10  C14 UNK     1      46.706 172.560 205.053  1.00  0.00     0.045 A 
ATOM     11  C20 UNK     1      45.850 171.423 205.187  1.00  0.00     0.099 C 
ENDROOT
BRANCH   3  12
ATOM     12  C2  UNK     1      48.599 177.261 204.525  1.00  0.00     0.050 C 
BRANCH  12  13
ATOM     13  C5  UNK     1      49.066 178.402 205.428  1.00  0.00     0.031 C 
BRANCH  13  14
ATOM     14  C8  UNK     1      47.894 179.289 205.840  1.00  0.00     0.234 C 
BRANCH  14  15
ATOM     15  N1  UNK     1      47.657 179.182 207.275  1.00  0.00    -0.079 N 
ATOM     16  C18 UNK     1      48.914 178.948 207.989  1.00  0.00     0.269 C 
ATOM     17  C19 UNK     1      46.704 178.109 207.562  1.00  0.00     0.269 C 
ATOM     18  HN  UNK     1      47.263 180.053 207.600  1.00  0.00     0.278 HD
ENDBRANCH  14  15
ENDBRANCH  13  14
ENDBRANCH  12  13
ENDBRANCH   3  12
BRANCH   3  19
ATOM     19  C6  UNK     1      50.558 175.772 204.154  1.00  0.00    -0.019 A 
ATOM     20  C11 UNK     1      51.659 175.201 204.790  1.00  0.00     0.013 A 
ATOM     21  C15 UNK     1      52.858 175.039 204.095  1.00  0.00     0.043 A 
ATOM     22  C17 UNK     1      52.954 175.447 202.765  1.00  0.00     0.116 A 
ATOM     23  F1  UNK     1      54.105 175.292 202.098  1.00  0.00    -0.206 F 
ATOM     24  C16 UNK     1      51.851 176.018 202.129  1.00  0.00     0.043 A 
ATOM     25  C12 UNK     1      50.653 176.181 202.824  1.00  0.00     0.013 A 
ENDBRANCH   3  19
TORSDOF 5
ENDMDL
MODEL 4
REMARK VINA RESULT:      -7.2     34.034     35.939
REMARK  5 active torsions:
REMARK  status: ('A' for Active; 'I' for Inactive)
REMARK    1  A    between atoms: N1_3  and  C8_12 
REMARK    2  A    between atoms: C1_5  and  C2_6 
REMARK    3  A    between atoms: C1_5  and  C6_10 
REMARK    4  A    between atoms: C2_6  and  C5_9 
REMARK    5  A    between atoms: C5_9  and  C8_12 
ROOT
ATOM      1  O1  UNK     1      50.660 179.062 164.875  1.00  0.00    -0.366 OA
ATOM      2  N2  UNK     1      56.519 174.986 164.923  1.00  0.00    -0.191 NA
ATOM      3  C1  UNK     1      50.385 177.908 165.731  1.00  0.00     0.116 C 
ATOM      4  C3  UNK     1      51.651 177.102 165.668  1.00  0.00    -0.011 A 
ATOM      5  C4  UNK     1      52.605 177.789 164.930  1.00  0.00    -0.023 A 
ATOM      6  C7  UNK     1      52.050 179.083 164.472  1.00  0.00     0.209 C 
ATOM      7  C9  UNK     1      51.938 175.866 166.227  1.00  0.00     0.012 A 
ATOM      8  C10 UNK     1      53.870 177.267 164.724  1.00  0.00     0.032 A 
ATOM      9  C13 UNK     1      53.209 175.323 166.025  1.00  0.00     0.023 A 
ATOM     10  C14 UNK     1      54.169 176.020 165.276  1.00  0.00     0.045 A 
ATOM     11  C20 UNK     1      55.465 175.450 165.081  1.00  0.00     0.099 C 
ENDROOT
BRANCH   3  12
ATOM     12  C2  UNK     1      50.072 178.412 167.136  1.00  0.00     0.050 C 
BRANCH  12  13
ATOM     13  C5  UNK     1      50.934 179.619 167.499  1.00  0.00     0.031 C 
BRANCH  13  14
ATOM     14  C8  UNK     1      51.558 179.451 168.883  1.00  0.00     0.234 C 
BRANCH  14  15
ATOM     15  N1  UNK     1      52.299 178.197 168.955  1.00  0.00    -0.079 N 
ATOM     16  C18 UNK     1      52.313 177.685 170.327  1.00  0.00     0.269 C 
ATOM     17  C19 UNK     1      53.667 178.376 168.466  1.00  0.00     0.269 C 
ATOM     18  HN  UNK     1      51.836 177.518 168.366  1.00  0.00     0.278 HD
ENDBRANCH  14  15
ENDBRANCH  13  14
ENDBRANCH  12  13
ENDBRANCH   3  12
BRANCH   3  19
ATOM     19  C6  UNK     1      49.213 177.196 165.142  1.00  0.00    -0.019 A 
ATOM     20  C11 UNK     1      48.284 176.575 165.975  1.00  0.00     0.013 A 
ATOM     21  C15 UNK     1      47.188 175.910 165.424  1.00  0.00     0.043 A 
ATOM     22  C17 UNK     1      47.023 175.869 164.039  1.00  0.00     0.116 A 
ATOM     23  F1  UNK     1      45.972 175.230 163.510  1.00  0.00    -0.206 F 
ATOM     24  C16 UNK     1      47.953 176.491 163.206  1.00  0.00     0.043 A 
ATOM     25  C12 UNK     1      49.049 177.155 163.758  1.00  0.00     0.013 A 
ENDBRANCH   3  19
TORSDOF 5
ENDMDL
MODEL 5
REMARK VINA RESULT:      -7.0     34.745     36.608
REMARK  5 active torsions:
REMARK  status: ('A' for Active; 'I' for Inactive)
REMARK    1  A    between atoms: N1_3  and  C8_12 
REMARK    2  A    between atoms: C1_5  and  C2_6 
REMARK    3  A    between atoms: C1_5  and  C6_10 
REMARK    4  A    between atoms: C2_6  and  C5_9 
REMARK    5  A    between atoms: C5_9  and  C8_12 
ROOT
ATOM      1  O1  UNK     1      53.113 179.206 164.371  1.00  0.00    -0.366 OA
ATOM      2  N2  UNK     1      57.706 174.226 162.127  1.00  0.00    -0.191 NA
ATOM      3  C1  UNK     1      52.630 177.913 164.856  1.00  0.00     0.116 C 
ATOM      4  C3  UNK     1      53.635 176.931 164.326  1.00  0.00    -0.011 A 
ATOM      5  C4  UNK     1      54.661 177.613 163.688  1.00  0.00    -0.023 A 
ATOM      6  C7  UNK     1      54.418 179.071 163.761  1.00  0.00     0.209 C 
ATOM      7  C9  UNK     1      53.645 175.547 164.412  1.00  0.00     0.012 A 
ATOM      8  C10 UNK     1      55.726 176.940 163.113  1.00  0.00     0.032 A 
ATOM      9  C13 UNK     1      54.709 174.853 163.833  1.00  0.00     0.023 A 
ATOM     10  C14 UNK     1      55.744 175.545 163.186  1.00  0.00     0.045 A 
ATOM     11  C20 UNK     1      56.826 174.818 162.602  1.00  0.00     0.099 C 
ENDROOT
BRANCH   3  12
ATOM     12  C2  UNK     1      52.588 177.955 166.380  1.00  0.00     0.050 C 
BRANCH  12  13
ATOM     13  C5  UNK     1      51.875 179.209 166.884  1.00  0.00     0.031 C 
BRANCH  13  14
ATOM     14  C8  UNK     1      51.982 179.328 168.402  1.00  0.00     0.234 C 
BRANCH  14  15
ATOM     15  N1  UNK     1      51.497 178.110 169.041  1.00  0.00    -0.079 N 
ATOM     16  C18 UNK     1      50.129 178.294 169.529  1.00  0.00     0.269 C 
ATOM     17  C19 UNK     1      52.380 177.717 170.140  1.00  0.00     0.269 C 
ATOM     18  HN  UNK     1      51.494 177.368 168.354  1.00  0.00     0.278 HD
ENDBRANCH  14  15
ENDBRANCH  13  14
ENDBRANCH  12  13
ENDBRANCH   3  12
BRANCH   3  19
ATOM     19  C6  UNK     1      51.266 177.714 164.286  1.00  0.00    -0.019 A 
ATOM     20  C11 UNK     1      50.418 176.749 164.828  1.00  0.00     0.013 A 
ATOM     21  C15 UNK     1      49.143 176.563 164.294  1.00  0.00     0.043 A 
ATOM     22  C17 UNK     1      48.716 177.344 163.220  1.00  0.00     0.116 A 
ATOM     23  F1  UNK     1      47.491 177.166 162.707  1.00  0.00    -0.206 F 
ATOM     24  C16 UNK     1      49.564 178.310 162.679  1.00  0.00     0.043 A 
ATOM     25  C12 UNK     1      50.840 178.495 163.212  1.00  0.00     0.013 A 
ENDBRANCH   3  19
TORSDOF 5
ENDMDL
MODEL 6
REMARK VINA RESULT:      -6.9      2.988      6.151
REMARK  5 active torsions:
REMARK  status: ('A' for Active; 'I' for Inactive)
REMARK    1  A    between atoms: N1_3  and  C8_12 
REMARK    2  A    between atoms: C1_5  and  C2_6 
REMARK    3  A    between atoms: C1_5  and  C6_10 
REMARK    4  A    between atoms: C2_6  and  C5_9 
REMARK    5  A    between atoms: C5_9  and  C8_12 
ROOT
ATOM      1  O1  UNK     1      19.851 177.083 145.970  1.00  0.00    -0.366 OA
ATOM      2  N2  UNK     1      13.857 180.375 148.014  1.00  0.00    -0.191 NA
ATOM      3  C1  UNK     1      20.127 177.747 147.244  1.00  0.00     0.116 C 
ATOM      4  C3  UNK     1      18.831 178.423 147.586  1.00  0.00    -0.011 A 
ATOM      5  C4  UNK     1      17.866 178.087 146.647  1.00  0.00    -0.023 A 
ATOM      6  C7  UNK     1      18.444 177.167 145.641  1.00  0.00     0.209 C 
ATOM      7  C9  UNK     1      18.528 179.262 148.649  1.00  0.00     0.012 A 
ATOM      8  C10 UNK     1      16.574 178.575 146.735  1.00  0.00     0.032 A 
ATOM      9  C13 UNK     1      17.229 179.765 148.749  1.00  0.00     0.023 A 
ATOM     10  C14 UNK     1      16.258 179.425 147.796  1.00  0.00     0.045 A 
ATOM     11  C20 UNK     1      14.934 179.948 147.916  1.00  0.00     0.099 C 
ENDROOT
BRANCH   3  12
ATOM     12  C2  UNK     1      20.530 176.686 148.263  1.00  0.00     0.050 C 
BRANCH  12  13
ATOM     13  C5  UNK     1      21.503 175.675 147.659  1.00  0.00     0.031 C 
BRANCH  13  14
ATOM     14  C8  UNK     1      21.775 174.529 148.631  1.00  0.00     0.234 C 
BRANCH  14  15
ATOM     15  N1  UNK     1      21.739 173.251 147.930  1.00  0.00    -0.079 N 
ATOM     16  C18 UNK     1      22.984 172.510 148.143  1.00  0.00     0.269 C 
ATOM     17  C19 UNK     1      21.506 173.452 146.500  1.00  0.00     0.269 C 
ATOM     18  HN  UNK     1      20.975 172.704 148.303  1.00  0.00     0.278 HD
ENDBRANCH  14  15
ENDBRANCH  13  14
ENDBRANCH  12  13
ENDBRANCH   3  12
BRANCH   3  19
ATOM     19  C6  UNK     1      21.240 178.710 147.003  1.00  0.00    -0.019 A 
ATOM     20  C11 UNK     1      22.001 179.178 148.073  1.00  0.00     0.013 A 
ATOM     21  C15 UNK     1      23.042 180.079 147.847  1.00  0.00     0.043 A 
ATOM     22  C17 UNK     1      23.322 180.510 146.550  1.00  0.00     0.116 A 
ATOM     23  F1  UNK     1      24.321 181.376 146.333  1.00  0.00    -0.206 F 
ATOM     24  C16 UNK     1      22.560 180.041 145.480  1.00  0.00     0.043 A 
ATOM     25  C12 UNK     1      21.519 179.141 145.706  1.00  0.00     0.013 A 
ENDBRANCH   3  19
TORSDOF 5
ENDMDL
MODEL 7
REMARK VINA RESULT:      -6.9     24.222     26.635
REMARK  5 active torsions:
REMARK  status: ('A' for Active; 'I' for Inactive)
REMARK    1  A    between atoms: N1_3  and  C8_12 
REMARK    2  A    between atoms: C1_5  and  C2_6 
REMARK    3  A    between atoms: C1_5  and  C6_10 
REMARK    4  A    between atoms: C2_6  and  C5_9 
REMARK    5  A    between atoms: C5_9  and  C8_12 
ROOT
ATOM      1  O1  UNK     1      45.422 175.233 141.915  1.00  0.00    -0.366 OA
ATOM      2  N2  UNK     1      48.107 170.419 137.381  1.00  0.00    -0.191 NA
ATOM      3  C1  UNK     1      45.881 175.956 140.728  1.00  0.00     0.116 C 
ATOM      4  C3  UNK     1      46.443 174.879 139.845  1.00  0.00    -0.011 A 
ATOM      5  C4  UNK     1      46.226 173.638 140.427  1.00  0.00    -0.023 A 
ATOM      6  C7  UNK     1      45.504 173.803 141.709  1.00  0.00     0.209 C 
ATOM      7  C9  UNK     1      47.087 174.989 138.621  1.00  0.00     0.012 A 
ATOM      8  C10 UNK     1      46.643 172.470 139.812  1.00  0.00     0.032 A 
ATOM      9  C13 UNK     1      47.517 173.820 137.989  1.00  0.00     0.023 A 
ATOM     10  C14 UNK     1      47.298 172.568 138.582  1.00  0.00     0.045 A 
ATOM     11  C20 UNK     1      47.744 171.382 137.920  1.00  0.00     0.099 C 
ENDROOT
BRANCH   3  12
ATOM     12  C2  UNK     1      44.686 176.670 140.105  1.00  0.00     0.050 C 
BRANCH  12  13
ATOM     13  C5  UNK     1      43.459 176.598 141.013  1.00  0.00     0.031 C 
BRANCH  13  14
ATOM     14  C8  UNK     1      42.251 177.258 140.354  1.00  0.00     0.234 C 
BRANCH  14  15
ATOM     15  N1  UNK     1      41.015 176.672 140.859  1.00  0.00    -0.079 N 
ATOM     16  C18 UNK     1      40.151 177.705 141.436  1.00  0.00     0.269 C 
ATOM     17  C19 UNK     1      41.303 175.638 141.854  1.00  0.00     0.269 C 
ATOM     18  HN  UNK     1      40.526 176.242 140.086  1.00  0.00     0.278 HD
ENDBRANCH  14  15
ENDBRANCH  13  14
ENDBRANCH  12  13
ENDBRANCH   3  12
BRANCH   3  19
ATOM     19  C6  UNK     1      46.913 176.932 141.183  1.00  0.00    -0.019 A 
ATOM     20  C11 UNK     1      47.668 176.667 142.325  1.00  0.00     0.013 A 
ATOM     21  C15 UNK     1      48.633 177.581 142.750  1.00  0.00     0.043 A 
ATOM     22  C17 UNK     1      48.843 178.758 142.032  1.00  0.00     0.116 A 
ATOM     23  F1  UNK     1      49.768 179.636 142.441  1.00  0.00    -0.206 F 
ATOM     24  C16 UNK     1      48.087 179.023 140.890  1.00  0.00     0.043 A 
ATOM     25  C12 UNK     1      47.122 178.109 140.465  1.00  0.00     0.013 A 
ENDBRANCH   3  19
TORSDOF 5
ENDMDL
MODEL 8
REMARK VINA RESULT:      -6.8     50.885     53.111
REMARK  5 active torsions:
REMARK  status: ('A' for Active; 'I' for Inactive)
REMARK    1  A    between atoms: N1_3  and  C8_12 
REMARK    2  A    between atoms: C1_5  and  C2_6 
REMARK    3  A    between atoms: C1_5  and  C6_10 
REMARK    4  A    between atoms: C2_6  and  C5_9 
REMARK    5  A    between atoms: C5_9  and  C8_12 
ROOT
ATOM      1  O1  UNK     1      36.827 172.700 198.286  1.00  0.00    -0.366 OA
ATOM      2  N2  UNK     1      39.441 171.676 191.724  1.00  0.00    -0.191 NA
ATOM      3  C1  UNK     1      36.425 173.845 197.469  1.00  0.00     0.116 C 
ATOM      4  C3  UNK     1      37.029 173.559 196.125  1.00  0.00    -0.011 A 
ATOM      5  C4  UNK     1      37.629 172.308 196.139  1.00  0.00    -0.023 A 
ATOM      6  C7  UNK     1      37.456 171.683 197.470  1.00  0.00     0.209 C 
ATOM      7  C9  UNK     1      37.036 174.339 194.978  1.00  0.00     0.012 A 
ATOM      8  C10 UNK     1      38.257 171.797 195.017  1.00  0.00     0.032 A 
ATOM      9  C13 UNK     1      37.669 173.839 193.838  1.00  0.00     0.023 A 
ATOM     10  C14 UNK     1      38.278 172.575 193.858  1.00  0.00     0.045 A 
ATOM     11  C20 UNK     1      38.919 172.079 192.681  1.00  0.00     0.099 C 
ENDROOT
BRANCH   3  12
ATOM     12  C2  UNK     1      34.902 173.904 197.436  1.00  0.00     0.050 C 
BRANCH  12  13
ATOM     13  C5  UNK     1      34.286 172.987 198.491  1.00  0.00     0.031 C 
BRANCH  13  14
ATOM     14  C8  UNK     1      34.044 173.739 199.797  1.00  0.00     0.234 C 
BRANCH  14  15
ATOM     15  N1  UNK     1      35.073 173.402 200.774  1.00  0.00    -0.079 N 
ATOM     16  C18 UNK     1      34.566 172.425 201.741  1.00  0.00     0.269 C 
ATOM     17  C19 UNK     1      35.542 174.603 201.466  1.00  0.00     0.269 C 
ATOM     18  HN  UNK     1      35.855 172.990 200.285  1.00  0.00     0.278 HD
ENDBRANCH  14  15
ENDBRANCH  13  14
ENDBRANCH  12  13
ENDBRANCH   3  12
BRANCH   3  19
ATOM     19  C6  UNK     1      36.995 175.064 198.116  1.00  0.00    -0.019 A 
ATOM     20  C11 UNK     1      38.263 175.016 198.695  1.00  0.00     0.013 A 
ATOM     21  C15 UNK     1      38.795 176.156 199.299  1.00  0.00     0.043 A 
ATOM     22  C17 UNK     1      38.060 177.341 199.321  1.00  0.00     0.116 A 
ATOM     23  F1  UNK     1      38.572 178.435 199.902  1.00  0.00    -0.206 F 
ATOM     24  C16 UNK     1      36.793 177.387 198.741  1.00  0.00     0.043 A 
ATOM     25  C12 UNK     1      36.260 176.248 198.138  1.00  0.00     0.013 A 
ENDBRANCH   3  19
TORSDOF 5
ENDMDL
MODEL 9
REMARK VINA RESULT:      -6.6     38.440     40.887
REMARK  5 active torsions:
REMARK  status: ('A' for Active; 'I' for Inactive)
REMARK    1  A    between atoms: N1_3  and  C8_12 
REMARK    2  A    between atoms: C1_5  and  C2_6 
REMARK    3  A    between atoms: C1_5  and  C6_10 
REMARK    4  A    between atoms: C2_6  and  C5_9 
REMARK    5  A    between atoms: C5_9  and  C8_12 
ROOT
ATOM      1  O1  UNK     1      31.260 171.647 187.141  1.00  0.00    -0.366 OA
ATOM      2  N2  UNK     1      26.622 171.237 181.732  1.00  0.00    -0.191 NA
ATOM      3  C1  UNK     1      30.554 172.926 187.070  1.00  0.00     0.116 C 
ATOM      4  C3  UNK     1      29.622 172.760 185.904  1.00  0.00    -0.011 A 
ATOM      5  C4  UNK     1      29.709 171.463 185.420  1.00  0.00    -0.023 A 
ATOM      6  C7  UNK     1      30.678 170.688 186.227  1.00  0.00     0.209 C 
ATOM      7  C9  UNK     1      28.761 173.680 185.326  1.00  0.00     0.012 A 
ATOM      8  C10 UNK     1      28.944 171.042 184.345  1.00  0.00     0.032 A 
ATOM      9  C13 UNK     1      27.985 173.273 184.239  1.00  0.00     0.023 A 
ATOM     10  C14 UNK     1      28.077 171.961 183.750  1.00  0.00     0.045 A 
ATOM     11  C20 UNK     1      27.275 171.561 182.637  1.00  0.00     0.099 C 
ENDROOT
BRANCH   3  12
ATOM     12  C2  UNK     1      29.821 173.147 188.389  1.00  0.00     0.050 C 
BRANCH  12  13
ATOM     13  C5  UNK     1      28.567 172.278 188.481  1.00  0.00     0.031 C 
BRANCH  13  14
ATOM     14  C8  UNK     1      28.581 171.429 189.750  1.00  0.00     0.234 C 
BRANCH  14  15
ATOM     15  N1  UNK     1      28.324 170.030 189.427  1.00  0.00    -0.079 N 
ATOM     16  C18 UNK     1      29.575 169.270 189.396  1.00  0.00     0.269 C 
ATOM     17  C19 UNK     1      27.629 169.916 188.143  1.00  0.00     0.269 C 
ATOM     18  HN  UNK     1      27.731 169.640 190.146  1.00  0.00     0.278 HD
ENDBRANCH  14  15
ENDBRANCH  13  14
ENDBRANCH  12  13
ENDBRANCH   3  12
BRANCH   3  19
ATOM     19  C6  UNK     1      31.584 173.982 186.845  1.00  0.00    -0.019 A 
ATOM     20  C11 UNK     1      31.699 175.046 187.740  1.00  0.00     0.013 A 
ATOM     21  C15 UNK     1      32.662 176.032 187.529  1.00  0.00     0.043 A 
ATOM     22  C17 UNK     1      33.511 175.953 186.425  1.00  0.00     0.116 A 
ATOM     23  F1  UNK     1      34.436 176.901 186.222  1.00  0.00    -0.206 F 
ATOM     24  C16 UNK     1      33.396 174.889 185.531  1.00  0.00     0.043 A 
ATOM     25  C12 UNK     1      32.432 173.903 185.741  1.00  0.00     0.013 A 
ENDBRANCH   3  19
TORSDOF 5
ENDMDL
MODEL 10
REMARK VINA RESULT:      -6.6     51.377     52.859
REMARK  5 active torsions:
REMARK  status: ('A' for Active; 'I' for Inactive)
REMARK    1  A    between atoms: N1_3  and  C8_12 
REMARK    2  A    between atoms: C1_5  and  C2_6 
REMARK    3  A    between atoms: C1_5  and  C6_10 
REMARK    4  A    between atoms: C2_6  and  C5_9 
REMARK    5  A    between atoms: C5_9  and  C8_12 
ROOT
ATOM      1  O1  UNK     1      36.063 173.260 198.456  1.00  0.00    -0.366 OA
ATOM      2  N2  UNK     1      40.497 170.429 193.633  1.00  0.00    -0.191 NA
ATOM      3  C1  UNK     1      36.355 174.297 197.466  1.00  0.00     0.116 C 
ATOM      4  C3  UNK     1      37.301 173.628 196.511  1.00  0.00    -0.011 A 
ATOM      5  C4  UNK     1      37.450 172.293 196.860  1.00  0.00    -0.023 A 
ATOM      6  C7  UNK     1      36.616 171.988 198.045  1.00  0.00     0.209 C 
ATOM      7  C9  UNK     1      37.967 174.155 195.414  1.00  0.00     0.012 A 
ATOM      8  C10 UNK     1      38.267 171.444 196.134  1.00  0.00     0.032 A 
ATOM      9  C13 UNK     1      38.798 173.313 194.673  1.00  0.00     0.023 A 
ATOM     10  C14 UNK     1      38.948 171.965 195.032  1.00  0.00     0.045 A 
ATOM     11  C20 UNK     1      39.802 171.117 194.261  1.00  0.00     0.099 C 
ENDROOT
BRANCH   3  12
ATOM     12  C2  UNK     1      35.046 174.719 196.807  1.00  0.00     0.050 C 
BRANCH  12  13
ATOM     13  C5  UNK     1      33.845 174.053 197.479  1.00  0.00     0.031 C 
BRANCH  13  14
ATOM     14  C8  UNK     1      33.286 172.928 196.611  1.00  0.00     0.234 C 
BRANCH  14  15
ATOM     15  N1  UNK     1      33.080 171.727 197.411  1.00  0.00    -0.079 N 
ATOM     16  C18 UNK     1      32.011 170.904 196.841  1.00  0.00     0.269 C 
ATOM     17  C19 UNK     1      32.766 172.076 198.797  1.00  0.00     0.269 C 
ATOM     18  HN  UNK     1      33.935 171.188 197.405  1.00  0.00     0.278 HD
ENDBRANCH  14  15
ENDBRANCH  13  14
ENDBRANCH  12  13
ENDBRANCH   3  12
BRANCH   3  19
ATOM     19  C6  UNK     1      36.979 175.437 198.199  1.00  0.00    -0.019 A 
ATOM     20  C11 UNK     1      36.321 176.665 198.268  1.00  0.00     0.013 A 
ATOM     21  C15 UNK     1      36.906 177.730 198.953  1.00  0.00     0.043 A 
ATOM     22  C17 UNK     1      38.146 177.567 199.570  1.00  0.00     0.116 A 
ATOM     23  F1  UNK     1      38.708 178.590 200.227  1.00  0.00    -0.206 F 
ATOM     24  C16 UNK     1      38.803 176.338 199.500  1.00  0.00     0.043 A 
ATOM     25  C12 UNK     1      38.220 175.273 198.814  1.00  0.00     0.013 A 
ENDBRANCH   3  19
TORSDOF 5
ENDMDL
