REMARK  2 active torsions:
REMARK  status: ('A' for Active; 'I' for Inactive)
REMARK    1  A    between atoms: C2_2  and  C5_5 
REMARK    2  A    between atoms: C7_7  and  N1_13 
ROOT
ATOM      1  C1  UNK     1     545.700 324.263 554.521  1.00  0.00    -0.041 A 
ATOM      2  C2  UNK     1     545.615 325.776 554.723  1.00  0.00     0.052 C 
ATOM      3  C3  UNK     1     545.845 323.716 553.303  1.00  0.00    -0.021 A 
ATOM      4  C4  UNK     1     545.642 323.477 555.599  1.00  0.00     0.008 A 
ATOM      5  C6  UNK     1     546.216 326.564 553.546  1.00  0.00     0.016 C 
ATOM      6  C7  UNK     1     545.946 324.575 552.036  1.00  0.00     0.218 C 
ATOM      7  C8  UNK     1     545.963 322.388 553.199  1.00  0.00     0.010 A 
ATOM      8  C9  UNK     1     545.732 322.157 555.476  1.00  0.00     0.001 A 
ATOM      9  C12 UNK     1     545.605 326.064 552.236  1.00  0.00     0.039 C 
ATOM     10  C13 UNK     1     545.896 321.614 554.277  1.00  0.00     0.001 A 
ENDROOT
BRANCH   2  11
ATOM     11  C5  UNK     1     544.190 326.233 555.060  1.00  0.00    -0.048 A 
ATOM     12  C10 UNK     1     543.109 325.550 554.674  1.00  0.00     0.033 A 
ATOM     13  C14 UNK     1     541.883 325.971 554.984  1.00  0.00     0.056 A 
ATOM     14  C17 UNK     1     541.729 327.099 555.683  1.00  0.00     0.055 A 
ATOM     15 Cl1  UNK     1     540.526 325.034 554.473  1.00  0.00    -0.083 Cl
ATOM     16  C15 UNK     1     542.805 327.786 556.061  1.00  0.00     0.026 A 
ATOM     17 Cl2  UNK     1     540.165 327.694 556.112  1.00  0.00    -0.083 Cl
ATOM     18  C11 UNK     1     544.025 327.355 555.757  1.00  0.00     0.009 A 
ENDBRANCH   2  11
BRANCH   6  19
ATOM     19  N1  UNK     1     545.096 323.982 550.935  1.00  0.00    -0.071 N 
ATOM     20  H12 UNK     1     544.102 324.138 551.156  1.00  0.00     0.277 HD
ATOM     21  H13 UNK     1     545.269 322.967 550.900  1.00  0.00     0.277 HD
ATOM     22  C16 UNK     1     545.403 324.559 549.579  1.00  0.00     0.267 C 
ENDBRANCH   6  19
TORSDOF 2
