MODEL 1
REMARK VINA RESULT:      -9.0      0.000      0.000
REMARK  4 active torsions:
REMARK  status: ('A' for Active; 'I' for Inactive)
REMARK    1  A    between atoms: O1_2  and  C6_11 
REMARK    2  A    between atoms: O1_2  and  C12_17 
REMARK    3  A    between atoms: C1_6  and  C7_12 
REMARK    4  A    between atoms: C2_7  and  C6_11 
ROOT
ATOM      1  N1  UNK     1      40.086 183.374 145.137  1.00  0.00    -0.075 N 
ATOM      2  C1  UNK     1      41.052 182.513 142.505  1.00  0.00     0.028 C 
ATOM      3  C2  UNK     1      39.634 182.150 143.018  1.00  0.00     0.044 C 
ATOM      4  C3  UNK     1      41.994 182.784 143.693  1.00  0.00     0.037 C 
ATOM      5  C4  UNK     1      39.146 183.203 144.031  1.00  0.00     0.239 C 
ATOM      6  C5  UNK     1      41.397 183.805 144.658  1.00  0.00     0.233 C 
ATOM      7  H11 UNK     1      40.187 182.484 145.628  1.00  0.00     0.277 HD
ATOM      8  HN2 UNK     1      39.723 184.066 145.778  1.00  0.00     0.277 HD
ENDROOT
BRANCH   3   9
ATOM      9  C6  UNK     1      38.622 182.037 141.873  1.00  0.00     0.182 C 
BRANCH   9  10
ATOM     10  O1  UNK     1      37.744 180.968 142.159  1.00  0.00    -0.351 OA
BRANCH  10  11
ATOM     11  C12 UNK     1      36.590 180.889 141.417  1.00  0.00     0.071 A 
ATOM     12  C14 UNK     1      36.245 181.945 140.578  1.00  0.00     0.076 A 
ATOM     13  C16 UNK     1      35.078 181.820 139.852  1.00  0.00     0.107 A 
ATOM     14  O2  UNK     1      34.575 182.739 138.986  1.00  0.00    -0.323 OA
ATOM     15  C17 UNK     1      34.283 180.700 139.948  1.00  0.00     0.105 A 
ATOM     16  C19 UNK     1      33.373 182.073 138.544  1.00  0.00     0.352 A 
ATOM     17  O3  UNK     1      33.182 180.779 139.152  1.00  0.00    -0.323 OA
ATOM     18  C18 UNK     1      34.610 179.644 140.774  1.00  0.00     0.042 A 
ATOM     19  C15 UNK     1      35.788 179.746 141.520  1.00  0.00     0.039 A 
ENDBRANCH  10  11
ENDBRANCH   9  10
ENDBRANCH   3   9
BRANCH   2  20
ATOM     20  C7  UNK     1      41.655 181.470 141.578  1.00  0.00    -0.053 A 
ATOM     21  C8  UNK     1      42.445 181.872 140.505  1.00  0.00     0.010 A 
ATOM     22  C10 UNK     1      42.998 180.915 139.654  1.00  0.00     0.043 A 
ATOM     23  C13 UNK     1      42.760 179.559 139.881  1.00  0.00     0.116 A 
ATOM     24  F1  UNK     1      43.291 178.640 139.064  1.00  0.00    -0.206 F 
ATOM     25  C11 UNK     1      41.968 179.160 140.959  1.00  0.00     0.043 A 
ATOM     26  C9  UNK     1      41.415 180.118 141.809  1.00  0.00     0.010 A 
ENDBRANCH   2  20
TORSDOF 4
ENDMDL
MODEL 2
REMARK VINA RESULT:      -8.9      2.408      3.923
REMARK  4 active torsions:
REMARK  status: ('A' for Active; 'I' for Inactive)
REMARK    1  A    between atoms: O1_2  and  C6_11 
REMARK    2  A    between atoms: O1_2  and  C12_17 
REMARK    3  A    between atoms: C1_6  and  C7_12 
REMARK    4  A    between atoms: C2_7  and  C6_11 
ROOT
ATOM      1  N1  UNK     1      43.118 182.184 140.665  1.00  0.00    -0.075 N 
ATOM      2  C1  UNK     1      41.613 179.669 140.780  1.00  0.00     0.028 C 
ATOM      3  C2  UNK     1      41.820 180.560 142.033  1.00  0.00     0.044 C 
ATOM      4  C3  UNK     1      42.732 179.927 139.754  1.00  0.00     0.037 C 
ATOM      5  C4  UNK     1      42.019 182.030 141.617  1.00  0.00     0.239 C 
ATOM      6  C5  UNK     1      42.877 181.415 139.447  1.00  0.00     0.233 C 
ATOM      7  H11 UNK     1      43.982 181.857 141.099  1.00  0.00     0.277 HD
ATOM      8  HN2 UNK     1      43.217 183.161 140.427  1.00  0.00     0.277 HD
ENDROOT
BRANCH   3   9
ATOM      9  C6  UNK     1      40.640 180.462 143.007  1.00  0.00     0.182 C 
BRANCH   9  10
ATOM     10  O1  UNK     1      39.839 181.616 142.851  1.00  0.00    -0.351 OA
BRANCH  10  11
ATOM     11  C12 UNK     1      38.587 181.441 142.311  1.00  0.00     0.071 A 
ATOM     12  C14 UNK     1      38.029 180.166 142.281  1.00  0.00     0.076 A 
ATOM     13  C16 UNK     1      36.770 180.040 141.731  1.00  0.00     0.107 A 
ATOM     14  O2  UNK     1      36.064 178.884 141.610  1.00  0.00    -0.323 OA
ATOM     15  C17 UNK     1      36.088 181.126 141.230  1.00  0.00     0.105 A 
ATOM     16  C19 UNK     1      34.858 179.363 140.978  1.00  0.00     0.352 A 
ATOM     17  O3  UNK     1      34.868 180.785 140.733  1.00  0.00    -0.323 OA
ATOM     18  C18 UNK     1      36.626 182.396 141.252  1.00  0.00     0.042 A 
ATOM     19  C15 UNK     1      37.901 182.551 141.804  1.00  0.00     0.039 A 
ENDBRANCH  10  11
ENDBRANCH   9  10
ENDBRANCH   3   9
BRANCH   2  20
ATOM     20  C7  UNK     1      41.512 178.185 141.093  1.00  0.00    -0.053 A 
ATOM     21  C8  UNK     1      42.670 177.416 141.183  1.00  0.00     0.010 A 
ATOM     22  C10 UNK     1      42.577 176.055 141.471  1.00  0.00     0.043 A 
ATOM     23  C13 UNK     1      41.327 175.467 141.669  1.00  0.00     0.116 A 
ATOM     24  F1  UNK     1      41.238 174.160 141.945  1.00  0.00    -0.206 F 
ATOM     25  C11 UNK     1      40.170 176.241 141.578  1.00  0.00     0.043 A 
ATOM     26  C9  UNK     1      40.263 177.603 141.290  1.00  0.00     0.010 A 
ENDBRANCH   2  20
TORSDOF 4
ENDMDL
MODEL 3
REMARK VINA RESULT:      -8.8      1.755      2.345
REMARK  4 active torsions:
REMARK  status: ('A' for Active; 'I' for Inactive)
REMARK    1  A    between atoms: O1_2  and  C6_11 
REMARK    2  A    between atoms: O1_2  and  C12_17 
REMARK    3  A    between atoms: C1_6  and  C7_12 
REMARK    4  A    between atoms: C2_7  and  C6_11 
ROOT
ATOM      1  N1  UNK     1      40.564 183.355 144.378  1.00  0.00    -0.075 N 
ATOM      2  C1  UNK     1      40.615 181.267 142.319  1.00  0.00     0.028 C 
ATOM      3  C2  UNK     1      39.285 181.837 142.877  1.00  0.00     0.044 C 
ATOM      4  C3  UNK     1      41.746 181.455 143.346  1.00  0.00     0.037 C 
ATOM      5  C4  UNK     1      39.492 183.275 143.387  1.00  0.00     0.239 C 
ATOM      6  C5  UNK     1      41.837 182.903 143.820  1.00  0.00     0.233 C 
ATOM      7  H11 UNK     1      40.324 182.767 145.176  1.00  0.00     0.277 HD
ATOM      8  HN2 UNK     1      40.660 184.312 144.688  1.00  0.00     0.277 HD
ENDROOT
BRANCH   3   9
ATOM      9  C6  UNK     1      38.170 181.825 141.825  1.00  0.00     0.182 C 
BRANCH   9  10
ATOM     10  O1  UNK     1      36.938 182.044 142.482  1.00  0.00    -0.351 OA
BRANCH  10  11
ATOM     11  C12 UNK     1      35.823 182.182 141.690  1.00  0.00     0.071 A 
ATOM     12  C14 UNK     1      35.870 181.761 140.365  1.00  0.00     0.076 A 
ATOM     13  C16 UNK     1      34.726 181.919 139.610  1.00  0.00     0.107 A 
ATOM     14  O2  UNK     1      34.578 181.572 138.303  1.00  0.00    -0.323 OA
ATOM     15  C17 UNK     1      33.581 182.469 140.139  1.00  0.00     0.105 A 
ATOM     16  C19 UNK     1      33.209 181.964 138.068  1.00  0.00     0.352 A 
ATOM     17  O3  UNK     1      32.571 182.536 139.229  1.00  0.00    -0.323 OA
ATOM     18  C18 UNK     1      33.516 182.892 141.451  1.00  0.00     0.042 A 
ATOM     19  C15 UNK     1      34.662 182.743 142.237  1.00  0.00     0.039 A 
ENDBRANCH  10  11
ENDBRANCH   9  10
ENDBRANCH   3   9
BRANCH   2  20
ATOM     20  C7  UNK     1      40.526 179.812 141.888  1.00  0.00    -0.053 A 
ATOM     21  C8  UNK     1      39.371 179.081 142.155  1.00  0.00     0.010 A 
ATOM     22  C10 UNK     1      39.288 177.746 141.760  1.00  0.00     0.043 A 
ATOM     23  C13 UNK     1      40.361 177.147 141.099  1.00  0.00     0.116 A 
ATOM     24  F1  UNK     1      40.282 175.865 140.720  1.00  0.00    -0.206 F 
ATOM     25  C11 UNK     1      41.516 177.883 140.833  1.00  0.00     0.043 A 
ATOM     26  C9  UNK     1      41.598 179.218 141.229  1.00  0.00     0.010 A 
ENDBRANCH   2  20
TORSDOF 4
ENDMDL
MODEL 4
REMARK VINA RESULT:      -8.5      3.906      5.768
REMARK  4 active torsions:
REMARK  status: ('A' for Active; 'I' for Inactive)
REMARK    1  A    between atoms: O1_2  and  C6_11 
REMARK    2  A    between atoms: O1_2  and  C12_17 
REMARK    3  A    between atoms: C1_6  and  C7_12 
REMARK    4  A    between atoms: C2_7  and  C6_11 
ROOT
ATOM      1  N1  UNK     1      38.519 180.612 144.129  1.00  0.00    -0.075 N 
ATOM      2  C1  UNK     1      37.200 181.219 141.580  1.00  0.00     0.028 C 
ATOM      3  C2  UNK     1      37.235 182.238 142.750  1.00  0.00     0.044 C 
ATOM      4  C3  UNK     1      37.356 179.786 142.119  1.00  0.00     0.037 C 
ATOM      5  C4  UNK     1      38.467 181.989 143.639  1.00  0.00     0.239 C 
ATOM      6  C5  UNK     1      38.579 179.658 143.024  1.00  0.00     0.233 C 
ATOM      7  H11 UNK     1      37.684 180.425 144.684  1.00  0.00     0.277 HD
ATOM      8  HN2 UNK     1      39.337 180.497 144.711  1.00  0.00     0.277 HD
ENDROOT
BRANCH   3   9
ATOM      9  C6  UNK     1      37.253 183.686 142.249  1.00  0.00     0.182 C 
BRANCH   9  10
ATOM     10  O1  UNK     1      36.295 184.422 142.982  1.00  0.00    -0.351 OA
BRANCH  10  11
ATOM     11  C12 UNK     1      35.014 184.449 142.486  1.00  0.00     0.071 A 
ATOM     12  C14 UNK     1      33.946 184.200 143.343  1.00  0.00     0.076 A 
ATOM     13  C16 UNK     1      32.678 184.239 142.800  1.00  0.00     0.107 A 
ATOM     14  O2  UNK     1      31.515 184.022 143.471  1.00  0.00    -0.323 OA
ATOM     15  C17 UNK     1      32.470 184.513 141.467  1.00  0.00     0.105 A 
ATOM     16  C19 UNK     1      30.549 184.191 142.412  1.00  0.00     0.352 A 
ATOM     17  O3  UNK     1      31.149 184.502 141.138  1.00  0.00    -0.323 OA
ATOM     18  C18 UNK     1      33.516 184.763 140.604  1.00  0.00     0.042 A 
ATOM     19  C15 UNK     1      34.812 184.729 141.129  1.00  0.00     0.039 A 
ENDBRANCH  10  11
ENDBRANCH   9  10
ENDBRANCH   3   9
BRANCH   2  20
ATOM     20  C7  UNK     1      35.958 181.327 140.711  1.00  0.00    -0.053 A 
ATOM     21  C8  UNK     1      36.067 181.793 139.403  1.00  0.00     0.010 A 
ATOM     22  C10 UNK     1      34.928 181.892 138.605  1.00  0.00     0.043 A 
ATOM     23  C13 UNK     1      33.683 181.522 139.117  1.00  0.00     0.116 A 
ATOM     24  F1  UNK     1      32.589 181.617 138.350  1.00  0.00    -0.206 F 
ATOM     25  C11 UNK     1      33.579 181.055 140.427  1.00  0.00     0.043 A 
ATOM     26  C9  UNK     1      34.719 180.958 141.225  1.00  0.00     0.010 A 
ENDBRANCH   2  20
TORSDOF 4
ENDMDL
MODEL 5
REMARK VINA RESULT:      -8.4      4.268      7.442
REMARK  4 active torsions:
REMARK  status: ('A' for Active; 'I' for Inactive)
REMARK    1  A    between atoms: O1_2  and  C6_11 
REMARK    2  A    between atoms: O1_2  and  C12_17 
REMARK    3  A    between atoms: C1_6  and  C7_12 
REMARK    4  A    between atoms: C2_7  and  C6_11 
ROOT
ATOM      1  N1  UNK     1      36.930 179.740 143.665  1.00  0.00    -0.075 N 
ATOM      2  C1  UNK     1      36.168 182.356 142.581  1.00  0.00     0.028 C 
ATOM      3  C2  UNK     1      36.788 182.202 143.995  1.00  0.00     0.044 C 
ATOM      4  C3  UNK     1      35.483 181.044 142.156  1.00  0.00     0.037 C 
ATOM      5  C4  UNK     1      37.668 180.939 144.058  1.00  0.00     0.239 C 
ATOM      6  C5  UNK     1      36.424 179.850 142.299  1.00  0.00     0.233 C 
ATOM      7  H11 UNK     1      36.143 179.611 144.302  1.00  0.00     0.277 HD
ATOM      8  HN2 UNK     1      37.541 178.938 143.729  1.00  0.00     0.277 HD
ENDROOT
BRANCH   3   9
ATOM      9  C6  UNK     1      37.624 183.425 144.390  1.00  0.00     0.182 C 
BRANCH   9  10
ATOM     10  O1  UNK     1      38.991 183.083 144.280  1.00  0.00    -0.351 OA
BRANCH  10  11
ATOM     11  C12 UNK     1      39.619 183.387 143.096  1.00  0.00     0.071 A 
ATOM     12  C14 UNK     1      40.506 182.471 142.539  1.00  0.00     0.076 A 
ATOM     13  C16 UNK     1      41.111 182.820 141.349  1.00  0.00     0.107 A 
ATOM     14  O2  UNK     1      42.004 182.064 140.655  1.00  0.00    -0.323 OA
ATOM     15  C17 UNK     1      40.852 184.023 140.732  1.00  0.00     0.105 A 
ATOM     16  C19 UNK     1      42.278 182.925 139.530  1.00  0.00     0.352 A 
ATOM     17  O3  UNK     1      41.551 184.170 139.574  1.00  0.00    -0.323 OA
ATOM     18  C18 UNK     1      39.976 184.943 141.270  1.00  0.00     0.042 A 
ATOM     19  C15 UNK     1      39.349 184.613 142.475  1.00  0.00     0.039 A 
ENDBRANCH  10  11
ENDBRANCH   9  10
ENDBRANCH   3   9
BRANCH   2  20
ATOM     20  C7  UNK     1      35.200 183.522 142.461  1.00  0.00    -0.053 A 
ATOM     21  C8  UNK     1      35.334 184.427 141.410  1.00  0.00     0.010 A 
ATOM     22  C10 UNK     1      34.447 185.497 141.299  1.00  0.00     0.043 A 
ATOM     23  C13 UNK     1      33.427 185.658 142.238  1.00  0.00     0.116 A 
ATOM     24  F1  UNK     1      32.575 186.685 142.131  1.00  0.00    -0.206 F 
ATOM     25  C11 UNK     1      33.296 184.749 143.288  1.00  0.00     0.043 A 
ATOM     26  C9  UNK     1      34.185 183.679 143.399  1.00  0.00     0.010 A 
ENDBRANCH   2  20
TORSDOF 4
ENDMDL
MODEL 6
REMARK VINA RESULT:      -8.3      3.056      4.262
REMARK  4 active torsions:
REMARK  status: ('A' for Active; 'I' for Inactive)
REMARK    1  A    between atoms: O1_2  and  C6_11 
REMARK    2  A    between atoms: O1_2  and  C12_17 
REMARK    3  A    between atoms: C1_6  and  C7_12 
REMARK    4  A    between atoms: C2_7  and  C6_11 
ROOT
ATOM      1  N1  UNK     1      41.771 182.437 144.164  1.00  0.00    -0.075 N 
ATOM      2  C1  UNK     1      39.492 182.149 142.340  1.00  0.00     0.028 C 
ATOM      3  C2  UNK     1      39.407 183.005 143.632  1.00  0.00     0.044 C 
ATOM      4  C3  UNK     1      40.587 181.076 142.484  1.00  0.00     0.037 C 
ATOM      5  C4  UNK     1      40.803 183.524 144.022  1.00  0.00     0.239 C 
ATOM      6  C5  UNK     1      41.916 181.689 142.918  1.00  0.00     0.233 C 
ATOM      7  H11 UNK     1      41.451 181.802 144.897  1.00  0.00     0.277 HD
ATOM      8  HN2 UNK     1      42.667 182.822 144.427  1.00  0.00     0.277 HD
ENDROOT
BRANCH   3   9
ATOM      9  C6  UNK     1      38.449 184.191 143.471  1.00  0.00     0.182 C 
BRANCH   9  10
ATOM     10  O1  UNK     1      37.358 184.002 144.350  1.00  0.00    -0.351 OA
BRANCH  10  11
ATOM     11  C12 UNK     1      36.127 183.782 143.781  1.00  0.00     0.071 A 
ATOM     12  C14 UNK     1      35.640 184.683 142.839  1.00  0.00     0.076 A 
ATOM     13  C16 UNK     1      34.400 184.419 142.294  1.00  0.00     0.107 A 
ATOM     14  O2  UNK     1      33.757 185.178 141.366  1.00  0.00    -0.323 OA
ATOM     15  C17 UNK     1      33.668 183.313 142.663  1.00  0.00     0.105 A 
ATOM     16  C19 UNK     1      32.539 184.425 141.189  1.00  0.00     0.352 A 
ATOM     17  O3  UNK     1      32.476 183.241 142.010  1.00  0.00    -0.323 OA
ATOM     18  C18 UNK     1      34.136 182.410 143.595  1.00  0.00     0.042 A 
ATOM     19  C15 UNK     1      35.390 182.654 144.162  1.00  0.00     0.039 A 
ENDBRANCH  10  11
ENDBRANCH   9  10
ENDBRANCH   3   9
BRANCH   2  20
ATOM     20  C7  UNK     1      38.172 181.509 141.941  1.00  0.00    -0.053 A 
ATOM     21  C8  UNK     1      37.389 182.098 140.951  1.00  0.00     0.010 A 
ATOM     22  C10 UNK     1      36.178 181.511 140.585  1.00  0.00     0.043 A 
ATOM     23  C13 UNK     1      35.755 180.336 141.208  1.00  0.00     0.116 A 
ATOM     24  F1  UNK     1      34.593 179.773 140.855  1.00  0.00    -0.206 F 
ATOM     25  C11 UNK     1      36.544 179.750 142.198  1.00  0.00     0.043 A 
ATOM     26  C9  UNK     1      37.754 180.338 142.565  1.00  0.00     0.010 A 
ENDBRANCH   2  20
TORSDOF 4
ENDMDL
MODEL 7
REMARK VINA RESULT:      -8.0     24.928     27.858
REMARK  4 active torsions:
REMARK  status: ('A' for Active; 'I' for Inactive)
REMARK    1  A    between atoms: O1_2  and  C6_11 
REMARK    2  A    between atoms: O1_2  and  C12_17 
REMARK    3  A    between atoms: C1_6  and  C7_12 
REMARK    4  A    between atoms: C2_7  and  C6_11 
ROOT
ATOM      1  N1  UNK     1      45.832 173.122 165.409  1.00  0.00    -0.075 N 
ATOM      2  C1  UNK     1      48.261 174.541 164.577  1.00  0.00     0.028 C 
ATOM      3  C2  UNK     1      47.465 174.948 165.845  1.00  0.00     0.044 C 
ATOM      4  C3  UNK     1      47.339 173.809 163.584  1.00  0.00     0.037 C 
ATOM      5  C4  UNK     1      46.702 173.735 166.411  1.00  0.00     0.239 C 
ATOM      6  C5  UNK     1      46.597 172.656 164.254  1.00  0.00     0.233 C 
ATOM      7  H11 UNK     1      45.147 173.811 165.097  1.00  0.00     0.277 HD
ATOM      8  HN2 UNK     1      45.348 172.338 165.824  1.00  0.00     0.277 HD
ENDROOT
BRANCH   3   9
ATOM      9  C6  UNK     1      48.377 175.528 166.933  1.00  0.00     0.182 C 
BRANCH   9  10
ATOM     10  O1  UNK     1      48.298 176.937 166.874  1.00  0.00    -0.351 OA
BRANCH  10  11
ATOM     11  C12 UNK     1      49.447 177.641 167.144  1.00  0.00     0.071 A 
ATOM     12  C14 UNK     1      50.150 177.376 168.315  1.00  0.00     0.076 A 
ATOM     13  C16 UNK     1      51.299 178.106 168.542  1.00  0.00     0.107 A 
ATOM     14  O2  UNK     1      52.116 177.994 169.623  1.00  0.00    -0.323 OA
ATOM     15  C17 UNK     1      51.737 179.060 167.651  1.00  0.00     0.105 A 
ATOM     16  C19 UNK     1      53.120 178.983 169.313  1.00  0.00     0.352 A 
ATOM     17  O3  UNK     1      52.884 179.664 168.064  1.00  0.00    -0.323 OA
ATOM     18  C18 UNK     1      51.052 179.335 166.485  1.00  0.00     0.042 A 
ATOM     19  C15 UNK     1      49.885 178.608 166.232  1.00  0.00     0.039 A 
ENDBRANCH  10  11
ENDBRANCH   9  10
ENDBRANCH   3   9
BRANCH   2  20
ATOM     20  C7  UNK     1      48.961 175.703 163.894  1.00  0.00    -0.053 A 
ATOM     21  C8  UNK     1      50.347 175.694 163.760  1.00  0.00     0.010 A 
ATOM     22  C10 UNK     1      50.991 176.761 163.132  1.00  0.00     0.043 A 
ATOM     23  C13 UNK     1      50.245 177.832 162.639  1.00  0.00     0.116 A 
ATOM     24  F1  UNK     1      50.863 178.856 162.036  1.00  0.00    -0.206 F 
ATOM     25  C11 UNK     1      48.857 177.836 162.774  1.00  0.00     0.043 A 
ATOM     26  C9  UNK     1      48.214 176.769 163.403  1.00  0.00     0.010 A 
ENDBRANCH   2  20
TORSDOF 4
ENDMDL
MODEL 8
REMARK VINA RESULT:      -7.8     24.994     27.325
REMARK  4 active torsions:
REMARK  status: ('A' for Active; 'I' for Inactive)
REMARK    1  A    between atoms: O1_2  and  C6_11 
REMARK    2  A    between atoms: O1_2  and  C12_17 
REMARK    3  A    between atoms: C1_6  and  C7_12 
REMARK    4  A    between atoms: C2_7  and  C6_11 
ROOT
ATOM      1  N1  UNK     1      52.644 178.950 167.681  1.00  0.00    -0.075 N 
ATOM      2  C1  UNK     1      50.147 177.799 166.658  1.00  0.00     0.028 C 
ATOM      3  C2  UNK     1      51.418 176.937 166.880  1.00  0.00     0.044 C 
ATOM      4  C3  UNK     1      50.536 179.274 166.446  1.00  0.00     0.037 C 
ATOM      5  C4  UNK     1      52.301 177.560 167.978  1.00  0.00     0.239 C 
ATOM      6  C5  UNK     1      51.446 179.779 167.562  1.00  0.00     0.233 C 
ATOM      7  H11 UNK     1      53.160 178.984 166.801  1.00  0.00     0.277 HD
ATOM      8  HN2 UNK     1      53.227 179.314 168.421  1.00  0.00     0.277 HD
ENDROOT
BRANCH   3   9
ATOM      9  C6  UNK     1      51.072 175.494 167.263  1.00  0.00     0.182 C 
BRANCH   9  10
ATOM     10  O1  UNK     1      51.484 174.645 166.211  1.00  0.00    -0.351 OA
BRANCH  10  11
ATOM     11  C12 UNK     1      50.497 174.009 165.497  1.00  0.00     0.071 A 
ATOM     12  C14 UNK     1      49.384 173.511 166.165  1.00  0.00     0.076 A 
ATOM     13  C16 UNK     1      48.419 172.882 165.406  1.00  0.00     0.107 A 
ATOM     14  O2  UNK     1      47.267 172.331 165.874  1.00  0.00    -0.323 OA
ATOM     15  C17 UNK     1      48.545 172.749 164.041  1.00  0.00     0.105 A 
ATOM     16  C19 UNK     1      46.680 171.837 164.652  1.00  0.00     0.352 A 
ATOM     17  O3  UNK     1      47.488 172.099 163.485  1.00  0.00    -0.323 OA
ATOM     18  C18 UNK     1      49.643 173.238 163.362  1.00  0.00     0.042 A 
ATOM     19  C15 UNK     1      50.635 173.880 164.109  1.00  0.00     0.039 A 
ENDBRANCH  10  11
ENDBRANCH   9  10
ENDBRANCH   3   9
BRANCH   2  20
ATOM     20  C7  UNK     1      49.269 177.313 165.517  1.00  0.00    -0.053 A 
ATOM     21  C8  UNK     1      48.028 176.745 165.792  1.00  0.00     0.010 A 
ATOM     22  C10 UNK     1      47.222 176.299 164.745  1.00  0.00     0.043 A 
ATOM     23  C13 UNK     1      47.659 176.423 163.426  1.00  0.00     0.116 A 
ATOM     24  F1  UNK     1      46.885 175.995 162.421  1.00  0.00    -0.206 F 
ATOM     25  C11 UNK     1      48.903 176.994 163.154  1.00  0.00     0.043 A 
ATOM     26  C9  UNK     1      49.709 177.439 164.202  1.00  0.00     0.010 A 
ENDBRANCH   2  20
TORSDOF 4
ENDMDL
MODEL 9
REMARK VINA RESULT:      -7.7     18.573     21.489
REMARK  4 active torsions:
REMARK  status: ('A' for Active; 'I' for Inactive)
REMARK    1  A    between atoms: O1_2  and  C6_11 
REMARK    2  A    between atoms: O1_2  and  C12_17 
REMARK    3  A    between atoms: C1_6  and  C7_12 
REMARK    4  A    between atoms: C2_7  and  C6_11 
ROOT
ATOM      1  N1  UNK     1      46.568 170.899 125.308  1.00  0.00    -0.075 N 
ATOM      2  C1  UNK     1      45.676 173.391 124.045  1.00  0.00     0.028 C 
ATOM      3  C2  UNK     1      47.052 173.276 124.752  1.00  0.00     0.044 C 
ATOM      4  C3  UNK     1      44.698 172.345 124.611  1.00  0.00     0.037 C 
ATOM      5  C4  UNK     1      47.546 171.817 124.727  1.00  0.00     0.239 C 
ATOM      6  C5  UNK     1      45.301 170.943 124.582  1.00  0.00     0.233 C 
ATOM      7  H11 UNK     1      46.403 171.161 126.280  1.00  0.00     0.277 HD
ATOM      8  HN2 UNK     1      46.936 169.958 125.277  1.00  0.00     0.277 HD
ENDROOT
BRANCH   3   9
ATOM      9  C6  UNK     1      48.106 174.182 124.106  1.00  0.00     0.182 C 
BRANCH   9  10
ATOM     10  O1  UNK     1      48.622 175.043 125.100  1.00  0.00    -0.351 OA
BRANCH  10  11
ATOM     11  C12 UNK     1      49.987 175.090 125.241  1.00  0.00     0.071 A 
ATOM     12  C14 UNK     1      50.602 174.292 126.201  1.00  0.00     0.076 A 
ATOM     13  C16 UNK     1      51.976 174.372 126.305  1.00  0.00     0.107 A 
ATOM     14  O2  UNK     1      52.752 173.676 127.178  1.00  0.00    -0.323 OA
ATOM     15  C17 UNK     1      52.715 175.204 125.495  1.00  0.00     0.105 A 
ATOM     16  C19 UNK     1      54.065 174.162 126.827  1.00  0.00     0.352 A 
ATOM     17  O3  UNK     1      54.047 175.134 125.760  1.00  0.00    -0.323 OA
ATOM     18  C18 UNK     1      52.122 176.002 124.538  1.00  0.00     0.042 A 
ATOM     19  C15 UNK     1      50.731 175.939 124.413  1.00  0.00     0.039 A 
ENDBRANCH  10  11
ENDBRANCH   9  10
ENDBRANCH   3   9
BRANCH   2  20
ATOM     20  C7  UNK     1      45.065 174.781 124.115  1.00  0.00    -0.053 A 
ATOM     21  C8  UNK     1      44.621 175.402 122.951  1.00  0.00     0.010 A 
ATOM     22  C10 UNK     1      44.059 176.677 123.015  1.00  0.00     0.043 A 
ATOM     23  C13 UNK     1      43.943 177.326 124.245  1.00  0.00     0.116 A 
ATOM     24  F1  UNK     1      43.404 178.551 124.307  1.00  0.00    -0.206 F 
ATOM     25  C11 UNK     1      44.389 176.700 125.409  1.00  0.00     0.043 A 
ATOM     26  C9  UNK     1      44.951 175.425 125.344  1.00  0.00     0.010 A 
ENDBRANCH   2  20
TORSDOF 4
ENDMDL
MODEL 10
REMARK VINA RESULT:      -7.6     47.361     49.417
REMARK  4 active torsions:
REMARK  status: ('A' for Active; 'I' for Inactive)
REMARK    1  A    between atoms: O1_2  and  C6_11 
REMARK    2  A    between atoms: O1_2  and  C12_17 
REMARK    3  A    between atoms: C1_6  and  C7_12 
REMARK    4  A    between atoms: C2_7  and  C6_11 
ROOT
ATOM      1  N1  UNK     1      24.836 171.661 188.751  1.00  0.00    -0.075 N 
ATOM      2  C1  UNK     1      27.408 172.366 187.529  1.00  0.00     0.028 C 
ATOM      3  C2  UNK     1      27.077 170.915 187.967  1.00  0.00     0.044 C 
ATOM      4  C3  UNK     1      26.563 173.370 188.335  1.00  0.00     0.037 C 
ATOM      5  C4  UNK     1      25.555 170.682 187.938  1.00  0.00     0.239 C 
ATOM      6  C5  UNK     1      25.077 173.023 188.278  1.00  0.00     0.233 C 
ATOM      7  H11 UNK     1      25.151 171.585 189.718  1.00  0.00     0.277 HD
ATOM      8  HN2 UNK     1      23.846 171.466 188.708  1.00  0.00     0.277 HD
ENDROOT
BRANCH   3   9
ATOM      9  C6  UNK     1      27.769 169.876 187.077  1.00  0.00     0.182 C 
BRANCH   9  10
ATOM     10  O1  UNK     1      28.402 168.927 187.911  1.00  0.00    -0.351 OA
BRANCH  10  11
ATOM     11  C12 UNK     1      29.688 169.201 188.308  1.00  0.00     0.071 A 
ATOM     12  C14 UNK     1      29.987 169.255 189.665  1.00  0.00     0.076 A 
ATOM     13  C16 UNK     1      31.293 169.532 190.015  1.00  0.00     0.107 A 
ATOM     14  O2  UNK     1      31.777 169.629 191.282  1.00  0.00    -0.323 OA
ATOM     15  C17 UNK     1      32.266 169.747 189.065  1.00  0.00     0.105 A 
ATOM     16  C19 UNK     1      33.166 169.927 191.025  1.00  0.00     0.352 A 
ATOM     17  O3  UNK     1      33.481 170.004 189.619  1.00  0.00    -0.323 OA
ATOM     18  C18 UNK     1      31.987 169.696 187.714  1.00  0.00     0.042 A 
ATOM     19  C15 UNK     1      30.671 169.417 187.334  1.00  0.00     0.039 A 
ENDBRANCH  10  11
ENDBRANCH   9  10
ENDBRANCH   3   9
BRANCH   2  20
ATOM     20  C7  UNK     1      28.884 172.715 187.629  1.00  0.00    -0.053 A 
ATOM     21  C8  UNK     1      29.627 172.919 186.470  1.00  0.00     0.010 A 
ATOM     22  C10 UNK     1      30.981 173.240 186.561  1.00  0.00     0.043 A 
ATOM     23  C13 UNK     1      31.587 173.357 187.812  1.00  0.00     0.116 A 
ATOM     24  F1  UNK     1      32.888 173.665 187.900  1.00  0.00    -0.206 F 
ATOM     25  C11 UNK     1      30.839 173.153 188.972  1.00  0.00     0.043 A 
ATOM     26  C9  UNK     1      29.484 172.831 188.880  1.00  0.00     0.010 A 
ENDBRANCH   2  20
TORSDOF 4
ENDMDL
