REMARK  4 active torsions:
REMARK  status: ('A' for Active; 'I' for Inactive)
REMARK    1  A    between atoms: O1_2  and  C6_11 
REMARK    2  A    between atoms: O1_2  and  C12_17 
REMARK    3  A    between atoms: C1_6  and  C7_12 
REMARK    4  A    between atoms: C2_7  and  C6_11 
ROOT
ATOM      1  N1  UNK     1     -15.920 312.700  48.561  1.00  0.00    -0.075 N 
ATOM      2  C1  UNK     1     -16.652 311.480  45.996  1.00  0.00     0.028 C 
ATOM      3  C2  UNK     1     -15.578 312.595  46.098  1.00  0.00     0.044 C 
ATOM      4  C3  UNK     1     -17.624 311.568  47.187  1.00  0.00     0.037 C 
ATOM      5  C4  UNK     1     -14.927 312.584  47.494  1.00  0.00     0.239 C 
ATOM      6  C5  UNK     1     -16.877 311.597  48.518  1.00  0.00     0.233 C 
ATOM      7  H11 UNK     1     -16.423 313.581  48.452  1.00  0.00     0.277 HD
ATOM      8  HN2 UNK     1     -15.449 312.696  49.455  1.00  0.00     0.277 HD
ENDROOT
BRANCH   3   9
ATOM      9  C6  UNK     1     -14.491 312.443  45.028  1.00  0.00     0.182 C 
BRANCH   9  10
ATOM     10  O1  UNK     1     -13.817 311.221  45.250  1.00  0.00    -0.351 OA
BRANCH  10  11
ATOM     11  C12 UNK     1     -13.285 310.591  44.151  1.00  0.00     0.071 A 
ATOM     12  C14 UNK     1     -12.853 311.353  43.070  1.00  0.00     0.076 A 
ATOM     13  C16 UNK     1     -12.325 310.676  41.990  1.00  0.00     0.107 A 
ATOM     14  O2  UNK     1     -11.854 311.241  40.846  1.00  0.00    -0.323 OA
ATOM     15  C17 UNK     1     -12.226 309.303  41.975  1.00  0.00     0.105 A 
ATOM     16  C19 UNK     1     -11.445 310.070  40.108  1.00  0.00     0.352 A 
ATOM     17  O3  UNK     1     -11.680 308.837  40.819  1.00  0.00    -0.323 OA
ATOM     18  C18 UNK     1     -12.649 308.532  43.038  1.00  0.00     0.042 A 
ATOM     19  C15 UNK     1     -13.188 309.194  44.145  1.00  0.00     0.039 A 
ENDBRANCH  10  11
ENDBRANCH   9  10
ENDBRANCH   3   9
BRANCH   2  20
ATOM     20  C7  UNK     1     -17.419 311.486  44.684  1.00  0.00    -0.053 A 
ATOM     21  C8  UNK     1     -17.837 310.283  44.121  1.00  0.00     0.010 A 
ATOM     22  C10 UNK     1     -18.541 310.288  42.917  1.00  0.00     0.043 A 
ATOM     23  C13 UNK     1     -18.826 311.497  42.281  1.00  0.00     0.116 A 
ATOM     24  F1  UNK     1     -19.502 311.502  41.125  1.00  0.00    -0.206 F 
ATOM     25  C11 UNK     1     -18.406 312.700  42.849  1.00  0.00     0.043 A 
ATOM     26  C9  UNK     1     -17.701 312.694  44.053  1.00  0.00     0.010 A 
ENDBRANCH   2  20
TORSDOF 4
