REMARK  4 active torsions:
REMARK  status: ('A' for Active; 'I' for Inactive)
REMARK    1  A    between atoms: O1_1  and  C9_12 
REMARK    2  A    between atoms: N2_3  and  C6_9 
REMARK    3  A    between atoms: C1_4  and  C3_6 
REMARK    4  A    between atoms: C3_6  and  C6_9 
ROOT
ATOM      1  N1  UNK     1       8.549 -67.262  86.255  1.00  0.00    -0.365 N 
ATOM      2  C1  UNK     1       7.480 -65.921  87.664  1.00  0.00    -0.029 A 
ATOM      3  C2  UNK     1       7.277 -65.431  86.343  1.00  0.00     0.001 A 
ATOM      4  C4  UNK     1       7.958 -66.290  85.478  1.00  0.00     0.043 A 
ATOM      5  C5  UNK     1       8.265 -67.047  87.577  1.00  0.00     0.096 A 
ATOM      6  C7  UNK     1       6.577 -64.336  85.799  1.00  0.00     0.050 A 
ATOM      7  C8  UNK     1       7.975 -66.109  84.091  1.00  0.00     0.033 A 
ATOM      8  C9  UNK     1       6.585 -64.142  84.413  1.00  0.00     0.066 A 
ATOM      9  C10 UNK     1       7.274 -65.016  83.574  1.00  0.00     0.039 A 
ATOM     10  H4  UNK     1       9.110 -68.023  85.899  1.00  0.00     0.165 HD
ENDROOT
BRANCH   2  11
ATOM     11  C3  UNK     1       6.947 -65.334  88.910  1.00  0.00     0.068 C 
BRANCH  11  12
ATOM     12  C6  UNK     1       5.568 -65.898  89.297  1.00  0.00     0.234 C 
BRANCH  12  13
ATOM     13  N2  UNK     1       5.051 -65.283  90.515  1.00  0.00    -0.079 N 
ATOM     14  H10 UNK     1       4.114 -65.638  90.702  1.00  0.00     0.274 HD
ATOM     15  H11 UNK     1       4.953 -64.278  90.375  1.00  0.00     0.274 HD
ATOM     16  HN1 UNK     1       5.663 -65.474  91.295  1.00  0.00     0.274 HD
ENDBRANCH  12  13
ENDBRANCH  11  12
ENDBRANCH   2  11
BRANCH   8  17
ATOM     17  O1  UNK     1       5.910 -63.084  83.879  1.00  0.00    -0.361 OA
ATOM     18  H12 UNK     1       5.491 -62.582  84.599  1.00  0.00     0.217 HD
ENDBRANCH   8  17
TORSDOF 4
