MODEL 1
REMARK VINA RESULT:      -7.4      0.000      0.000
REMARK  2 active torsions:
REMARK  status: ('A' for Active; 'I' for Inactive)
REMARK    1  A    between atoms: C2_2  and  C5_5 
REMARK    2  A    between atoms: C7_7  and  N1_13 
ROOT
ATOM      1  C1  UNK     1      51.820 179.036 166.418  1.00  0.00    -0.041 A 
ATOM      2  C2  UNK     1      51.537 179.240 164.929  1.00  0.00     0.052 C 
ATOM      3  C3  UNK     1      52.885 178.343 166.851  1.00  0.00    -0.021 A 
ATOM      4  C4  UNK     1      50.981 179.582 167.301  1.00  0.00     0.008 A 
ATOM      5  C6  UNK     1      52.794 179.055 164.059  1.00  0.00     0.016 C 
ATOM      6  C7  UNK     1      53.896 177.719 165.879  1.00  0.00     0.218 C 
ATOM      7  C8  UNK     1      53.103 178.242 168.166  1.00  0.00     0.010 A 
ATOM      8  C9  UNK     1      51.195 179.450 168.606  1.00  0.00     0.001 A 
ATOM      9  C12 UNK     1      53.456 177.719 164.402  1.00  0.00     0.039 C 
ATOM     10  C13 UNK     1      52.257 178.783 169.037  1.00  0.00     0.001 A 
ENDROOT
BRANCH   2  11
ATOM     11  C5  UNK     1      50.363 178.381 164.442  1.00  0.00    -0.048 A 
ATOM     12  C10 UNK     1      49.719 177.527 165.243  1.00  0.00     0.033 A 
ATOM     13  C14 UNK     1      48.701 176.797 164.791  1.00  0.00     0.056 A 
ATOM     14  C17 UNK     1      48.321 176.909 163.516  1.00  0.00     0.055 A 
ATOM     15 Cl1  UNK     1      47.897 175.724 165.880  1.00  0.00    -0.083 Cl
ATOM     16  C15 UNK     1      48.967 177.753 162.714  1.00  0.00     0.026 A 
ATOM     17 Cl2  UNK     1      47.009 175.986 162.875  1.00  0.00    -0.083 Cl
ATOM     18  C11 UNK     1      49.976 178.486 163.173  1.00  0.00     0.009 A 
ENDBRANCH   2  11
BRANCH   6  19
ATOM     19  N1  UNK     1      54.251 176.318 166.323  1.00  0.00    -0.071 N 
ATOM     20  H12 UNK     1      54.311 176.295 167.351  1.00  0.00     0.277 HD
ATOM     21  H13 UNK     1      55.175 176.077 165.937  1.00  0.00     0.277 HD
ATOM     22  C16 UNK     1      53.262 175.284 165.858  1.00  0.00     0.267 C 
ENDBRANCH   6  19
TORSDOF 2
ENDMDL
MODEL 2
REMARK VINA RESULT:      -7.3     22.330     25.222
REMARK  2 active torsions:
REMARK  status: ('A' for Active; 'I' for Inactive)
REMARK    1  A    between atoms: C2_2  and  C5_5 
REMARK    2  A    between atoms: C7_7  and  N1_13 
ROOT
ATOM      1  C1  UNK     1      47.854 177.723 139.983  1.00  0.00    -0.041 A 
ATOM      2  C2  UNK     1      48.272 176.252 139.969  1.00  0.00     0.052 C 
ATOM      3  C3  UNK     1      48.226 178.558 140.966  1.00  0.00    -0.021 A 
ATOM      4  C4  UNK     1      47.109 178.178 138.973  1.00  0.00     0.008 A 
ATOM      5  C6  UNK     1      49.517 175.984 140.834  1.00  0.00     0.016 C 
ATOM      6  C7  UNK     1      49.106 178.094 142.135  1.00  0.00     0.218 C 
ATOM      7  C8  UNK     1      47.868 179.845 140.895  1.00  0.00     0.010 A 
ATOM      8  C9  UNK     1      46.737 179.453 138.931  1.00  0.00     0.001 A 
ATOM      9  C12 UNK     1      49.299 176.568 142.231  1.00  0.00     0.039 C 
ATOM     10  C13 UNK     1      47.119 180.286 139.890  1.00  0.00     0.001 A 
ENDROOT
BRANCH   2  11
ATOM     11  C5  UNK     1      47.108 175.319 140.322  1.00  0.00    -0.048 A 
ATOM     12  C10 UNK     1      47.089 174.030 139.969  1.00  0.00     0.033 A 
ATOM     13  C14 UNK     1      46.065 173.243 140.294  1.00  0.00     0.056 A 
ATOM     14  C17 UNK     1      45.032 173.748 140.974  1.00  0.00     0.055 A 
ATOM     15 Cl1  UNK     1      46.108 171.582 139.824  1.00  0.00    -0.083 Cl
ATOM     16  C15 UNK     1      45.045 175.034 141.319  1.00  0.00     0.026 A 
ATOM     17 Cl2  UNK     1      43.676 172.776 141.420  1.00  0.00    -0.083 Cl
ATOM     18  C11 UNK     1      46.074 175.812 141.001  1.00  0.00     0.009 A 
ENDBRANCH   2  11
BRANCH   6  19
ATOM     19  N1  UNK     1      48.573 178.641 143.439  1.00  0.00    -0.071 N 
ATOM     20  H12 UNK     1      47.903 179.397 143.239  1.00  0.00     0.277 HD
ATOM     21  H13 UNK     1      49.361 179.037 143.973  1.00  0.00     0.277 HD
ATOM     22  C16 UNK     1      47.906 177.594 144.289  1.00  0.00     0.267 C 
ENDBRANCH   6  19
TORSDOF 2
ENDMDL
MODEL 3
REMARK VINA RESULT:      -7.1     41.505     43.352
REMARK  2 active torsions:
REMARK  status: ('A' for Active; 'I' for Inactive)
REMARK    1  A    between atoms: C2_2  and  C5_5 
REMARK    2  A    between atoms: C7_7  and  N1_13 
ROOT
ATOM      1  C1  UNK     1      45.084 177.204 121.912  1.00  0.00    -0.041 A 
ATOM      2  C2  UNK     1      45.734 178.189 122.885  1.00  0.00     0.052 C 
ATOM      3  C3  UNK     1      44.261 176.230 122.331  1.00  0.00    -0.021 A 
ATOM      4  C4  UNK     1      45.341 177.341 120.609  1.00  0.00     0.008 A 
ATOM      5  C6  UNK     1      44.976 178.284 124.222  1.00  0.00     0.016 C 
ATOM      6  C7  UNK     1      43.908 176.047 123.813  1.00  0.00     0.218 C 
ATOM      7  C8  UNK     1      43.686 175.432 121.425  1.00  0.00     0.010 A 
ATOM      8  C9  UNK     1      44.785 176.522 119.722  1.00  0.00     0.001 A 
ATOM      9  C12 UNK     1      44.766 176.879 124.788  1.00  0.00     0.039 C 
ATOM     10  C13 UNK     1      43.955 175.571 120.130  1.00  0.00     0.001 A 
ENDROOT
BRANCH   2  11
ATOM     11  C5  UNK     1      47.227 177.901 123.084  1.00  0.00    -0.048 A 
ATOM     12  C10 UNK     1      48.182 178.712 122.619  1.00  0.00     0.033 A 
ATOM     13  C14 UNK     1      49.471 178.437 122.811  1.00  0.00     0.056 A 
ATOM     14  C17 UNK     1      49.820 177.327 123.470  1.00  0.00     0.055 A 
ATOM     15 Cl1  UNK     1      50.657 179.532 122.201  1.00  0.00    -0.083 Cl
ATOM     16  C15 UNK     1      48.869 176.514 123.926  1.00  0.00     0.026 A 
ATOM     17 Cl2  UNK     1      51.475 176.919 123.746  1.00  0.00    -0.083 Cl
ATOM     18  C11 UNK     1      47.585 176.799 123.740  1.00  0.00     0.009 A 
ENDBRANCH   2  11
BRANCH   6  19
ATOM     19  N1  UNK     1      43.958 174.583 124.185  1.00  0.00    -0.071 N 
ATOM     20  H12 UNK     1      43.596 174.023 123.400  1.00  0.00     0.277 HD
ATOM     21  H13 UNK     1      43.349 174.432 125.002  1.00  0.00     0.277 HD
ATOM     22  C16 UNK     1      45.344 174.112 124.537  1.00  0.00     0.267 C 
ENDBRANCH   6  19
TORSDOF 2
ENDMDL
MODEL 4
REMARK VINA RESULT:      -7.1     40.989     42.473
REMARK  2 active torsions:
REMARK  status: ('A' for Active; 'I' for Inactive)
REMARK    1  A    between atoms: C2_2  and  C5_5 
REMARK    2  A    between atoms: C7_7  and  N1_13 
ROOT
ATOM      1  C1  UNK     1      44.615 174.663 124.356  1.00  0.00    -0.041 A 
ATOM      2  C2  UNK     1      44.898 173.162 124.425  1.00  0.00     0.052 C 
ATOM      3  C3  UNK     1      44.337 175.281 123.197  1.00  0.00    -0.021 A 
ATOM      4  C4  UNK     1      44.634 175.362 125.493  1.00  0.00     0.008 A 
ATOM      5  C6  UNK     1      44.335 172.399 123.212  1.00  0.00     0.016 C 
ATOM      6  C7  UNK     1      44.273 174.519 121.866  1.00  0.00     0.218 C 
ATOM      7  C8  UNK     1      44.050 176.587 123.211  1.00  0.00     0.010 A 
ATOM      8  C9  UNK     1      44.375 176.665 125.488  1.00  0.00     0.001 A 
ATOM      9  C12 UNK     1      44.807 173.074 121.923  1.00  0.00     0.039 C 
ATOM     10  C13 UNK     1      44.080 177.276 124.347  1.00  0.00     0.001 A 
ENDROOT
BRANCH   2  11
ATOM     11  C5  UNK     1      46.385 172.865 124.657  1.00  0.00    -0.048 A 
ATOM     12  C10 UNK     1      47.329 173.805 124.547  1.00  0.00     0.033 A 
ATOM     13  C14 UNK     1      48.613 173.518 124.758  1.00  0.00     0.056 A 
ATOM     14  C17 UNK     1      48.967 172.269 125.074  1.00  0.00     0.055 A 
ATOM     15 Cl1  UNK     1      49.783 174.779 124.619  1.00  0.00    -0.083 Cl
ATOM     16  C15 UNK     1      48.029 171.330 125.175  1.00  0.00     0.026 A 
ATOM     17 Cl2  UNK     1      50.616 171.838 125.356  1.00  0.00    -0.083 Cl
ATOM     18  C11 UNK     1      46.750 171.625 124.973  1.00  0.00     0.009 A 
ENDBRANCH   2  11
BRANCH   6  19
ATOM     19  N1  UNK     1      44.981 175.301 120.783  1.00  0.00    -0.071 N 
ATOM     20  H12 UNK     1      45.770 174.743 120.427  1.00  0.00     0.277 HD
ATOM     21  H13 UNK     1      45.354 176.168 121.196  1.00  0.00     0.277 HD
ATOM     22  C16 UNK     1      44.077 175.674 119.639  1.00  0.00     0.267 C 
ENDBRANCH   6  19
TORSDOF 2
ENDMDL
MODEL 5
REMARK VINA RESULT:      -7.0     24.896     26.403
REMARK  2 active torsions:
REMARK  status: ('A' for Active; 'I' for Inactive)
REMARK    1  A    between atoms: C2_2  and  C5_5 
REMARK    2  A    between atoms: C7_7  and  N1_13 
ROOT
ATOM      1  C1  UNK     1      45.715 172.733 141.374  1.00  0.00    -0.041 A 
ATOM      2  C2  UNK     1      46.944 173.545 141.783  1.00  0.00     0.052 C 
ATOM      3  C3  UNK     1      45.814 171.620 140.629  1.00  0.00    -0.021 A 
ATOM      4  C4  UNK     1      44.516 173.148 141.790  1.00  0.00     0.008 A 
ATOM      5  C6  UNK     1      48.243 172.720 141.724  1.00  0.00     0.016 C 
ATOM      6  C7  UNK     1      47.169 171.084 140.149  1.00  0.00     0.218 C 
ATOM      7  C8  UNK     1      44.705 170.928 140.346  1.00  0.00     0.010 A 
ATOM      8  C9  UNK     1      43.420 172.465 141.478  1.00  0.00     0.001 A 
ATOM      9  C12 UNK     1      48.354 172.048 140.355  1.00  0.00     0.039 C 
ATOM     10  C13 UNK     1      43.515 171.355 140.758  1.00  0.00     0.001 A 
ENDROOT
BRANCH   2  11
ATOM     11  C5  UNK     1      47.055 174.858 140.999  1.00  0.00    -0.048 A 
ATOM     12  C10 UNK     1      46.791 174.937 139.691  1.00  0.00     0.033 A 
ATOM     13  C14 UNK     1      46.893 176.094 139.038  1.00  0.00     0.056 A 
ATOM     14  C17 UNK     1      47.275 177.192 139.695  1.00  0.00     0.055 A 
ATOM     15 Cl1  UNK     1      46.523 176.134 137.352  1.00  0.00    -0.083 Cl
ATOM     16  C15 UNK     1      47.546 177.114 140.996  1.00  0.00     0.026 A 
ATOM     17 Cl2  UNK     1      47.427 178.718 138.899  1.00  0.00    -0.083 Cl
ATOM     18  C11 UNK     1      47.433 175.960 141.644  1.00  0.00     0.009 A 
ENDBRANCH   2  11
BRANCH   6  19
ATOM     19  N1  UNK     1      47.080 170.660 138.700  1.00  0.00    -0.071 N 
ATOM     20  H12 UNK     1      46.143 170.271 138.520  1.00  0.00     0.277 HD
ATOM     21  H13 UNK     1      47.778 169.923 138.532  1.00  0.00     0.277 HD
ATOM     22  C16 UNK     1      47.344 171.788 137.740  1.00  0.00     0.267 C 
ENDBRANCH   6  19
TORSDOF 2
ENDMDL
MODEL 6
REMARK VINA RESULT:      -7.0     25.230     26.531
REMARK  2 active torsions:
REMARK  status: ('A' for Active; 'I' for Inactive)
REMARK    1  A    between atoms: C2_2  and  C5_5 
REMARK    2  A    between atoms: C7_7  and  N1_13 
ROOT
ATOM      1  C1  UNK     1      46.487 173.452 140.854  1.00  0.00    -0.041 A 
ATOM      2  C2  UNK     1      47.570 174.512 141.055  1.00  0.00     0.052 C 
ATOM      3  C3  UNK     1      46.620 172.460 139.958  1.00  0.00    -0.021 A 
ATOM      4  C4  UNK     1      45.388 173.519 141.609  1.00  0.00     0.008 A 
ATOM      5  C6  UNK     1      48.951 174.046 140.559  1.00  0.00     0.016 C 
ATOM      6  C7  UNK     1      47.875 172.319 139.086  1.00  0.00     0.218 C 
ATOM      7  C8  UNK     1      45.658 171.536 139.865  1.00  0.00     0.010 A 
ATOM      8  C9  UNK     1      44.427 172.610 141.486  1.00  0.00     0.001 A 
ATOM      9  C12 UNK     1      48.827 173.531 139.124  1.00  0.00     0.039 C 
ATOM     10  C13 UNK     1      44.564 171.618 140.616  1.00  0.00     0.001 A 
ENDROOT
BRANCH   2  11
ATOM     11  C5  UNK     1      47.167 175.868 140.461  1.00  0.00    -0.048 A 
ATOM     12  C10 UNK     1      47.664 177.024 140.911  1.00  0.00     0.033 A 
ATOM     13  C14 UNK     1      47.297 178.185 140.372  1.00  0.00     0.056 A 
ATOM     14  C17 UNK     1      46.410 178.200 139.373  1.00  0.00     0.055 A 
ATOM     15 Cl1  UNK     1      47.987 179.644 140.985  1.00  0.00    -0.083 Cl
ATOM     16  C15 UNK     1      45.908 177.050 138.929  1.00  0.00     0.026 A 
ATOM     17 Cl2  UNK     1      45.896 179.676 138.638  1.00  0.00    -0.083 Cl
ATOM     18  C11 UNK     1      46.286 175.893 139.464  1.00  0.00     0.009 A 
ENDBRANCH   2  11
BRANCH   6  19
ATOM     19  N1  UNK     1      47.486 172.000 137.660  1.00  0.00    -0.071 N 
ATOM     20  H12 UNK     1      47.687 172.816 137.065  1.00  0.00     0.277 HD
ATOM     21  H13 UNK     1      46.473 171.816 137.631  1.00  0.00     0.277 HD
ATOM     22  C16 UNK     1      48.199 170.794 137.111  1.00  0.00     0.267 C 
ENDBRANCH   6  19
TORSDOF 2
ENDMDL
MODEL 7
REMARK VINA RESULT:      -6.9     33.868     35.619
REMARK  2 active torsions:
REMARK  status: ('A' for Active; 'I' for Inactive)
REMARK    1  A    between atoms: C2_2  and  C5_5 
REMARK    2  A    between atoms: C7_7  and  N1_13 
ROOT
ATOM      1  C1  UNK     1      20.918 177.995 147.203  1.00  0.00    -0.041 A 
ATOM      2  C2  UNK     1      20.423 176.973 148.227  1.00  0.00     0.052 C 
ATOM      3  C3  UNK     1      20.231 178.267 146.082  1.00  0.00    -0.021 A 
ATOM      4  C4  UNK     1      22.061 178.638 147.454  1.00  0.00     0.008 A 
ATOM      5  C6  UNK     1      18.910 176.714 148.119  1.00  0.00     0.016 C 
ATOM      6  C7  UNK     1      18.899 177.579 145.760  1.00  0.00     0.218 C 
ATOM      7  C8  UNK     1      20.693 179.208 145.251  1.00  0.00     0.010 A 
ATOM      8  C9  UNK     1      22.522 179.550 146.605  1.00  0.00     0.001 A 
ATOM      9  C12 UNK     1      18.554 176.382 146.668  1.00  0.00     0.039 C 
ATOM     10  C13 UNK     1      21.837 179.836 145.505  1.00  0.00     0.001 A 
ENDROOT
BRANCH   2  11
ATOM     11  C5  UNK     1      21.238 175.674 148.185  1.00  0.00    -0.048 A 
ATOM     12  C10 UNK     1      21.437 174.916 149.267  1.00  0.00     0.033 A 
ATOM     13  C14 UNK     1      22.147 173.791 149.198  1.00  0.00     0.056 A 
ATOM     14  C17 UNK     1      22.680 173.416 148.032  1.00  0.00     0.055 A 
ATOM     15 Cl1  UNK     1      22.354 172.847 150.628  1.00  0.00    -0.083 Cl
ATOM     16  C15 UNK     1      22.490 174.174 146.954  1.00  0.00     0.026 A 
ATOM     17 Cl2  UNK     1      23.611 171.969 147.883  1.00  0.00    -0.083 Cl
ATOM     18  C11 UNK     1      21.772 175.290 147.027  1.00  0.00     0.009 A 
ENDBRANCH   2  11
BRANCH   6  19
ATOM     19  N1  UNK     1      18.863 177.164 144.306  1.00  0.00    -0.071 N 
ATOM     20  H12 UNK     1      19.551 177.721 143.780  1.00  0.00     0.277 HD
ATOM     21  H13 UNK     1      17.925 177.367 143.932  1.00  0.00     0.277 HD
ATOM     22  C16 UNK     1      19.145 175.700 144.104  1.00  0.00     0.267 C 
ENDBRANCH   6  19
TORSDOF 2
ENDMDL
MODEL 8
REMARK VINA RESULT:      -6.8     15.261     17.716
REMARK  2 active torsions:
REMARK  status: ('A' for Active; 'I' for Inactive)
REMARK    1  A    between atoms: C2_2  and  C5_5 
REMARK    2  A    between atoms: C7_7  and  N1_13 
ROOT
ATOM      1  C1  UNK     1      45.661 175.600 183.018  1.00  0.00    -0.041 A 
ATOM      2  C2  UNK     1      46.757 176.534 183.534  1.00  0.00     0.052 C 
ATOM      3  C3  UNK     1      45.830 174.269 182.964  1.00  0.00    -0.021 A 
ATOM      4  C4  UNK     1      44.504 176.138 182.628  1.00  0.00     0.008 A 
ATOM      5  C6  UNK     1      47.780 175.808 184.426  1.00  0.00     0.016 C 
ATOM      6  C7  UNK     1      47.129 173.596 183.428  1.00  0.00     0.218 C 
ATOM      7  C8  UNK     1      44.815 173.503 182.549  1.00  0.00     0.010 A 
ATOM      8  C9  UNK     1      43.514 175.367 182.191  1.00  0.00     0.001 A 
ATOM      9  C12 UNK     1      48.296 174.566 183.699  1.00  0.00     0.039 C 
ATOM     10  C13 UNK     1      43.669 174.050 182.154  1.00  0.00     0.001 A 
ENDROOT
BRANCH   2  11
ATOM     11  C5  UNK     1      47.430 177.315 182.398  1.00  0.00    -0.048 A 
ATOM     12  C10 UNK     1      47.516 176.838 181.153  1.00  0.00     0.033 A 
ATOM     13  C14 UNK     1      48.104 177.543 180.186  1.00  0.00     0.056 A 
ATOM     14  C17 UNK     1      48.626 178.740 180.465  1.00  0.00     0.055 A 
ATOM     15 Cl1  UNK     1      48.169 176.880 178.594  1.00  0.00    -0.083 Cl
ATOM     16  C15 UNK     1      48.548 179.213 181.707  1.00  0.00     0.026 A 
ATOM     17 Cl2  UNK     1      49.402 179.696 179.253  1.00  0.00    -0.083 Cl
ATOM     18  C11 UNK     1      47.952 178.511 182.664  1.00  0.00     0.009 A 
ENDBRANCH   2  11
BRANCH   6  19
ATOM     19  N1  UNK     1      47.546 172.531 182.440  1.00  0.00    -0.071 N 
ATOM     20  H12 UNK     1      46.704 172.110 182.022  1.00  0.00     0.277 HD
ATOM     21  H13 UNK     1      48.060 171.797 182.949  1.00  0.00     0.277 HD
ATOM     22  C16 UNK     1      48.436 173.057 181.347  1.00  0.00     0.267 C 
ENDBRANCH   6  19
TORSDOF 2
ENDMDL
MODEL 9
REMARK VINA RESULT:      -6.8     30.462     32.778
REMARK  2 active torsions:
REMARK  status: ('A' for Active; 'I' for Inactive)
REMARK    1  A    between atoms: C2_2  and  C5_5 
REMARK    2  A    between atoms: C7_7  and  N1_13 
ROOT
ATOM      1  C1  UNK     1      36.786 173.500 194.774  1.00  0.00    -0.041 A 
ATOM      2  C2  UNK     1      37.882 173.616 193.715  1.00  0.00     0.052 C 
ATOM      3  C3  UNK     1      36.876 174.122 195.961  1.00  0.00    -0.021 A 
ATOM      4  C4  UNK     1      35.706 172.769 194.489  1.00  0.00     0.008 A 
ATOM      5  C6  UNK     1      38.769 174.858 193.916  1.00  0.00     0.016 C 
ATOM      6  C7  UNK     1      38.082 174.997 196.328  1.00  0.00     0.218 C 
ATOM      7  C8  UNK     1      35.861 174.021 196.825  1.00  0.00     0.010 A 
ATOM      8  C9  UNK     1      34.717 172.655 195.369  1.00  0.00     0.001 A 
ATOM      9  C12 UNK     1      39.275 174.892 195.359  1.00  0.00     0.039 C 
ATOM     10  C13 UNK     1      34.794 173.283 196.535  1.00  0.00     0.001 A 
ENDROOT
BRANCH   2  11
ATOM     11  C5  UNK     1      38.707 172.328 193.596  1.00  0.00    -0.048 A 
ATOM     12  C10 UNK     1      39.067 171.606 194.662  1.00  0.00     0.033 A 
ATOM     13  C14 UNK     1      39.781 170.489 194.526  1.00  0.00     0.056 A 
ATOM     14  C17 UNK     1      40.154 170.087 193.308  1.00  0.00     0.055 A 
ATOM     15 Cl1  UNK     1      40.200 169.592 195.940  1.00  0.00    -0.083 Cl
ATOM     16  C15 UNK     1      39.803 170.809 192.246  1.00  0.00     0.026 A 
ATOM     17 Cl2  UNK     1      41.081 168.649 193.073  1.00  0.00    -0.083 Cl
ATOM     18  C11 UNK     1      39.082 171.916 192.387  1.00  0.00     0.009 A 
ENDBRANCH   2  11
BRANCH   6  19
ATOM     19  N1  UNK     1      38.525 174.708 197.744  1.00  0.00    -0.071 N 
ATOM     20  H12 UNK     1      37.695 174.634 198.349  1.00  0.00     0.277 HD
ATOM     21  H13 UNK     1      39.100 175.497 198.074  1.00  0.00     0.277 HD
ATOM     22  C16 UNK     1      39.341 173.449 197.860  1.00  0.00     0.267 C 
ENDBRANCH   6  19
TORSDOF 2
ENDMDL
MODEL 10
REMARK VINA RESULT:      -6.7     35.654     38.784
REMARK  2 active torsions:
REMARK  status: ('A' for Active; 'I' for Inactive)
REMARK    1  A    between atoms: C2_2  and  C5_5 
REMARK    2  A    between atoms: C7_7  and  N1_13 
ROOT
ATOM      1  C1  UNK     1      18.261 179.350 146.523  1.00  0.00    -0.041 A 
ATOM      2  C2  UNK     1      18.683 179.258 145.056  1.00  0.00     0.052 C 
ATOM      3  C3  UNK     1      18.882 178.650 147.486  1.00  0.00    -0.021 A 
ATOM      4  C4  UNK     1      17.254 180.166 146.842  1.00  0.00     0.008 A 
ATOM      5  C6  UNK     1      20.125 178.748 144.887  1.00  0.00     0.016 C 
ATOM      6  C7  UNK     1      20.064 177.720 147.179  1.00  0.00     0.218 C 
ATOM      7  C8  UNK     1      18.498 178.811 148.757  1.00  0.00     0.010 A 
ATOM      8  C9  UNK     1      16.864 180.295 148.106  1.00  0.00     0.001 A 
ATOM      9  C12 UNK     1      20.300 177.451 145.680  1.00  0.00     0.039 C 
ATOM     10  C13 UNK     1      17.488 179.620 149.062  1.00  0.00     0.001 A 
ENDROOT
BRANCH   2  11
ATOM     11  C5  UNK     1      17.681 178.454 144.218  1.00  0.00    -0.048 A 
ATOM     12  C10 UNK     1      16.363 178.503 144.434  1.00  0.00     0.033 A 
ATOM     13  C14 UNK     1      15.518 177.795 143.687  1.00  0.00     0.056 A 
ATOM     14  C17 UNK     1      15.991 177.014 142.712  1.00  0.00     0.055 A 
ATOM     15 Cl1  UNK     1      13.825 177.914 144.003  1.00  0.00    -0.083 Cl
ATOM     16  C15 UNK     1      17.305 176.958 142.501  1.00  0.00     0.026 A 
ATOM     17 Cl2  UNK     1      14.943 176.073 141.713  1.00  0.00    -0.083 Cl
ATOM     18  C11 UNK     1      18.142 177.674 143.243  1.00  0.00     0.009 A 
ENDBRANCH   2  11
BRANCH   6  19
ATOM     19  N1  UNK     1      19.912 176.416 147.930  1.00  0.00    -0.071 N 
ATOM     20  H12 UNK     1      19.604 175.684 147.275  1.00  0.00     0.277 HD
ATOM     21  H13 UNK     1      19.185 176.537 148.650  1.00  0.00     0.277 HD
ATOM     22  C16 UNK     1      21.180 175.977 148.610  1.00  0.00     0.267 C 
ENDBRANCH   6  19
TORSDOF 2
ENDMDL
