@<TRIPOS>MOLECULE
ZINC000003800706
  46   48    0    0    0
SMALL
USER_CHARGES
NO_NAME
@<TRIPOS>ATOM
    1 C1        0.0223     1.4533    -0.0485 C.3    1 <0>      -0.0500
    2 N2        0.0391    -0.0156    -0.0585 N.4    1 <0>      -0.3900
    3 H3        0.4987    -0.3410    -0.8957 H      1 <0>       0.4300
    4 C4        0.7655    -0.5050     1.1208 C.3    1 <0>      -0.0500
    5 C5       -1.3398    -0.5212    -0.0289 C.3    1 <0>      -0.0100
    6 C6       -2.0595    -0.1159    -1.3168 C.3    1 <0>      -0.1500
    7 C7       -3.4957    -0.6426    -1.2859 C.3    1 <0>      -0.1000
    8 C8       -4.2153    -0.2373    -2.5738 C.3    1 <0>       0.2000
    9 C9       -4.1003     1.2503    -2.7861 C.ar   1 <0>      -0.1200
   10 C10      -4.7070     2.1230    -1.9021 C.ar   1 <0>      -0.0800
   11 C11      -4.6022     3.4873    -2.0957 C.ar   1 <0>      -0.1500
   12 C12      -3.8889     3.9801    -3.1752 C.ar   1 <0>       0.1100
   13 F13      -3.7855     5.3136    -3.3653 F      1 <0>      -0.1300
   14 C14      -3.2814     3.1050    -4.0597 C.ar   1 <0>      -0.1500
   15 C15      -3.3834     1.7412    -3.8614 C.ar   1 <0>      -0.0700
   16 O16      -3.6580    -0.9443    -3.6968 O.3    1 <0>      -0.3400
   17 C17      -4.7609    -1.1329    -4.6021 C.3    1 <0>       0.0900
   18 C18      -6.0011    -1.1872    -3.7405 C.ar   1 <0>      -0.1200
   19 C19      -7.2771    -1.6479    -3.9735 C.ar   1 <0>      -0.0400
   20 C20      -8.2399    -1.5664    -2.9642 C.ar   1 <0>       0.0000
   21 C21      -9.5694    -2.0439    -3.1986 C.1    1 <0>       0.2400
   22 N22     -10.6241    -2.4227    -3.3845 N.1    1 <0>      -0.3900
   23 C23      -7.9000    -1.0179    -1.7261 C.ar   1 <0>      -0.0600
   24 C24      -6.6168    -0.5596    -1.5058 C.ar   1 <0>      -0.0900
   25 C25      -5.6697    -0.6429    -2.5074 C.ar   1 <0>      -0.1000
   26 H26       1.0454     1.8285    -0.0705 H      1 <0>       0.1200
   27 H27      -0.5168     1.8165    -0.9235 H      1 <0>       0.1200
   28 H28      -0.4743     1.8049     0.8559 H      1 <0>       0.1200
   29 H29       0.2690    -0.1534     2.0252 H      1 <0>       0.1200
   30 H30       0.7780    -1.5949     1.1134 H      1 <0>       0.1200
   31 H31       1.7887    -0.1298     1.0988 H      1 <0>       0.1200
   32 H32      -1.3266    -1.6080     0.0533 H      1 <0>       0.1300
   33 H33      -1.8636    -0.0984     0.8285 H      1 <0>       0.1300
   34 H34      -2.0727     0.9709    -1.3990 H      1 <0>       0.0900
   35 H35      -1.5358    -0.5388    -2.1741 H      1 <0>       0.1000
   36 H36      -3.4824    -1.7294    -1.2037 H      1 <0>       0.0900
   37 H37      -4.0194    -0.2197    -0.4286 H      1 <0>       0.0900
   38 H38      -5.2633     1.7384    -1.0600 H      1 <0>       0.1300
   39 H39      -5.0769     4.1689    -1.4053 H      1 <0>       0.1400
   40 H40      -2.7250     3.4882    -4.9023 H      1 <0>       0.1400
   41 H41      -2.9093     1.0584    -4.5509 H      1 <0>       0.1400
   42 H42      -4.8231    -0.2959    -5.2977 H      1 <0>       0.0900
   43 H43      -4.6422    -2.0683    -5.1489 H      1 <0>       0.1100
   44 H44      -7.5334    -2.0708    -4.9336 H      1 <0>       0.1400
   45 H45      -8.6400    -0.9519    -0.9423 H      1 <0>       0.1400
   46 H46      -6.3530    -0.1352    -0.5484 H      1 <0>       0.1400
@<TRIPOS>BOND
   1    1    2 1
   2    1   26 1
   3    1   27 1
   4    1   28 1
   5    2    3 1
   6    2    4 1
   7    2    5 1
   8    4   29 1
   9    4   30 1
  10    4   31 1
  11    5    6 1
  12    5   32 1
  13    5   33 1
  14    6    7 1
  15    6   34 1
  16    6   35 1
  17    7    8 1
  18    7   36 1
  19    7   37 1
  20    8   25 1
  21    8    9 1
  22    8   16 1
  23    9   15 ar
  24    9   10 ar
  25   10   11 ar
  26   10   38 1
  27   11   12 ar
  28   11   39 1
  29   12   13 1
  30   12   14 ar
  31   14   15 ar
  32   14   40 1
  33   15   41 1
  34   16   17 1
  35   17   18 1
  36   17   42 1
  37   17   43 1
  38   18   25 ar
  39   18   19 ar
  40   19   20 ar
  41   19   44 1
  42   20   21 1
  43   20   23 ar
  44   21   22 3
  45   23   24 ar
  46   23   45 1
  47   24   25 ar
  48   24   46 1
