MODEL 1
REMARK VINA RESULT:      -9.0      0.000      0.000
REMARK  5 active torsions:
REMARK  status: ('A' for Active; 'I' for Inactive)
REMARK    1  A    between atoms: N2_2  and  C5_5 
REMARK    2  A    between atoms: C5_5  and  C6_6 
REMARK    3  A    between atoms: C6_6  and  C7_7 
REMARK    4  A    between atoms: C7_7  and  C8_8 
REMARK    5  A    between atoms: C8_8  and  C9_9 
ROOT
ATOM      1  C8  <0> d          33.448 183.525 141.247  0.00  0.00     0.116 C 
ATOM      2  O16 <0> d          33.545 184.938 140.993  0.00  0.00    -0.366 OA
ATOM      3  C17 <0> d          34.895 185.288 141.349  0.00  0.00     0.209 C 
ATOM      4  C18 <0> d          35.310 184.306 142.420  0.00  0.00    -0.023 A 
ATOM      5  C19 <0> d          36.326 184.317 143.349  0.00  0.00     0.032 A 
ATOM      6  C20 <0> d          36.470 183.242 144.232  0.00  0.00     0.045 A 
ATOM      7  C21 <0> d          37.523 183.246 145.201  0.00  0.00     0.099 C 
ATOM      8  N22 <0> d          38.359 183.249 145.971  0.00  0.00    -0.191 NA
ATOM      9  C23 <0> d          35.582 182.168 144.165  0.00  0.00     0.023 A 
ATOM     10  C24 <0> d          34.568 182.171 143.228  0.00  0.00     0.012 A 
ATOM     11  C25 <0> d          34.431 183.234 142.359  0.00  0.00    -0.011 A 
ENDROOT
BRANCH   1  12
ATOM     12  C7  <0> d          32.029 183.166 141.693  0.00  0.00     0.050 C 
BRANCH  12  13
ATOM     13  C6  <0> d          31.244 184.449 141.975  0.00  0.00     0.031 C 
BRANCH  13  14
ATOM     14  C5  <0> d          30.505 184.311 143.308  0.00  0.00     0.234 C 
BRANCH  14  15
ATOM     15  N2  <0> d          30.796 185.478 144.151  0.00  0.00    -0.079 N 
ATOM     16  C1  <0> d          30.218 185.272 145.487  0.00  0.00     0.269 C 
ATOM     17  H3  <0> d          30.393 186.304 143.735  0.00  0.00     0.278 HD
ATOM     18  C4  <0> d          32.250 185.648 144.268  0.00  0.00     0.269 C 
ENDBRANCH  14  15
ENDBRANCH  13  14
ENDBRANCH  12  13
ENDBRANCH   1  12
BRANCH   1  19
ATOM     19  C9  <0> d          33.816 182.747 140.011  0.00  0.00    -0.019 A 
ATOM     20  C15 <0> d          32.836 182.382 139.107  0.00  0.00     0.013 A 
ATOM     21  C14 <0> d          33.173 181.672 137.970  0.00  0.00     0.043 A 
ATOM     22  C12 <0> d          34.493 181.319 137.741  0.00  0.00     0.116 A 
ATOM     23  C11 <0> d          35.472 181.681 138.650  0.00  0.00     0.043 A 
ATOM     24  F13 <0> d          34.823 180.620 136.632  0.00  0.00    -0.206 F 
ATOM     25  C10 <0> d          35.134 182.394 139.784  0.00  0.00     0.013 A 
ENDBRANCH   1  19
TORSDOF 5
ENDMDL
MODEL 2
REMARK VINA RESULT:      -8.5      2.420      5.597
REMARK  5 active torsions:
REMARK  status: ('A' for Active; 'I' for Inactive)
REMARK    1  A    between atoms: N2_2  and  C5_5 
REMARK    2  A    between atoms: C5_5  and  C6_6 
REMARK    3  A    between atoms: C6_6  and  C7_7 
REMARK    4  A    between atoms: C7_7  and  C8_8 
REMARK    5  A    between atoms: C8_8  and  C9_9 
ROOT
ATOM      1  C8  <0> d          33.961 183.647 141.708  0.00  0.00     0.116 C 
ATOM      2  O16 <0> d          33.319 182.520 141.083  0.00  0.00    -0.366 OA
ATOM      3  C17 <0> d          31.912 182.821 141.129  0.00  0.00     0.209 C 
ATOM      4  C18 <0> d          31.714 183.699 142.342  0.00  0.00    -0.023 A 
ATOM      5  C19 <0> d          30.598 184.039 143.072  0.00  0.00     0.032 A 
ATOM      6  C20 <0> d          30.721 184.893 144.172  0.00  0.00     0.045 A 
ATOM      7  C21 <0> d          29.565 185.251 144.937  0.00  0.00     0.099 C 
ATOM      8  N22 <0> d          28.648 185.535 145.544  0.00  0.00    -0.191 NA
ATOM      9  C23 <0> d          31.977 185.395 144.521  0.00  0.00     0.023 A 
ATOM     10  C24 <0> d          33.087 185.045 143.780  0.00  0.00     0.012 A 
ATOM     11  C25 <0> d          32.959 184.201 142.695  0.00  0.00    -0.011 A 
ENDROOT
BRANCH   1  12
ATOM     12  C7  <0> d          35.226 183.194 142.440  0.00  0.00     0.050 C 
BRANCH  12  13
ATOM     13  C6  <0> d          35.093 181.717 142.820  0.00  0.00     0.031 C 
BRANCH  13  14
ATOM     14  C5  <0> d          36.388 180.982 142.466  0.00  0.00     0.234 C 
BRANCH  14  15
ATOM     15  N2  <0> d          37.003 180.458 143.693  0.00  0.00    -0.079 N 
ATOM     16  C1  <0> d          37.942 179.382 143.347  0.00  0.00     0.269 C 
ATOM     17  H3  <0> d          36.285 180.095 144.302  0.00  0.00     0.278 HD
ATOM     18  C4  <0> d          37.727 181.538 144.377  0.00  0.00     0.269 C 
ENDBRANCH  14  15
ENDBRANCH  13  14
ENDBRANCH  12  13
ENDBRANCH   1  12
BRANCH   1  19
ATOM     19  C9  <0> d          34.304 184.689 140.675  0.00  0.00    -0.019 A 
ATOM     20  C15 <0> d          34.266 186.030 141.008  0.00  0.00     0.013 A 
ATOM     21  C14 <0> d          34.585 186.987 140.063  0.00  0.00     0.043 A 
ATOM     22  C12 <0> d          34.933 186.601 138.779  0.00  0.00     0.116 A 
ATOM     23  C11 <0> d          34.965 185.258 138.446  0.00  0.00     0.043 A 
ATOM     24  F13 <0> d          35.240 187.536 137.852  0.00  0.00    -0.206 F 
ATOM     25  C10 <0> d          34.651 184.303 139.393  0.00  0.00     0.013 A 
ENDBRANCH   1  19
TORSDOF 5
ENDMDL
MODEL 3
REMARK VINA RESULT:      -8.5      2.748      5.318
REMARK  5 active torsions:
REMARK  status: ('A' for Active; 'I' for Inactive)
REMARK    1  A    between atoms: N2_2  and  C5_5 
REMARK    2  A    between atoms: C5_5  and  C6_6 
REMARK    3  A    between atoms: C6_6  and  C7_7 
REMARK    4  A    between atoms: C7_7  and  C8_8 
REMARK    5  A    between atoms: C8_8  and  C9_9 
ROOT
ATOM      1  C8  <0> d          33.886 184.308 141.512  0.00  0.00     0.116 C 
ATOM      2  O16 <0> d          34.606 185.537 141.720  0.00  0.00    -0.366 OA
ATOM      3  C17 <0> d          34.265 185.947 143.057  0.00  0.00     0.209 C 
ATOM      4  C18 <0> d          32.885 185.392 143.322  0.00  0.00    -0.023 A 
ATOM      5  C19 <0> d          31.924 185.697 144.260  0.00  0.00     0.032 A 
ATOM      6  C20 <0> d          30.713 184.999 144.264  0.00  0.00     0.045 A 
ATOM      7  C21 <0> d          29.709 185.310 145.236  0.00  0.00     0.099 C 
ATOM      8  N22 <0> d          28.911 185.557 146.007  0.00  0.00    -0.191 NA
ATOM      9  C23 <0> d          30.487 183.998 143.317  0.00  0.00     0.023 A 
ATOM     10  C24 <0> d          31.459 183.704 142.383  0.00  0.00     0.012 A 
ATOM     11  C25 <0> d          32.654 184.396 142.384  0.00  0.00    -0.011 A 
ENDROOT
BRANCH   1  12
ATOM     12  C7  <0> d          33.483 184.175 140.043  0.00  0.00     0.050 C 
BRANCH  12  13
ATOM     13  C6  <0> d          32.830 182.809 139.815  0.00  0.00     0.031 C 
BRANCH  13  14
ATOM     14  C5  <0> d          33.079 182.358 138.375  0.00  0.00     0.234 C 
BRANCH  14  15
ATOM     15  N2  <0> d          33.853 181.110 138.380  0.00  0.00    -0.079 N 
ATOM     16  C1  <0> d          35.273 181.415 138.160  0.00  0.00     0.269 C 
ATOM     17  H3  <0> d          33.522 180.505 137.644  0.00  0.00     0.278 HD
ATOM     18  C4  <0> d          33.692 180.439 139.677  0.00  0.00     0.269 C 
ENDBRANCH  14  15
ENDBRANCH  13  14
ENDBRANCH  12  13
ENDBRANCH   1  12
BRANCH   1  19
ATOM     19  C9  <0> d          34.733 183.133 141.927  0.00  0.00    -0.019 A 
ATOM     20  C15 <0> d          34.269 182.252 142.886  0.00  0.00     0.013 A 
ATOM     21  C14 <0> d          35.042 181.170 143.264  0.00  0.00     0.043 A 
ATOM     22  C12 <0> d          36.287 180.975 142.688  0.00  0.00     0.116 A 
ATOM     23  C11 <0> d          36.752 181.861 141.732  0.00  0.00     0.043 A 
ATOM     24  F13 <0> d          37.046 179.921 143.061  0.00  0.00    -0.206 F 
ATOM     25  C10 <0> d          35.975 182.939 141.352  0.00  0.00     0.013 A 
ENDBRANCH   1  19
TORSDOF 5
ENDMDL
MODEL 4
REMARK VINA RESULT:      -8.3      2.885      3.302
REMARK  5 active torsions:
REMARK  status: ('A' for Active; 'I' for Inactive)
REMARK    1  A    between atoms: N2_2  and  C5_5 
REMARK    2  A    between atoms: C5_5  and  C6_6 
REMARK    3  A    between atoms: C6_6  and  C7_7 
REMARK    4  A    between atoms: C7_7  and  C8_8 
REMARK    5  A    between atoms: C8_8  and  C9_9 
ROOT
ATOM      1  C8  <0> d          35.646 182.281 141.854  0.00  0.00     0.116 C 
ATOM      2  O16 <0> d          36.152 183.627 141.910  0.00  0.00    -0.366 OA
ATOM      3  C17 <0> d          37.486 183.545 141.375  0.00  0.00     0.209 C 
ATOM      4  C18 <0> d          37.970 182.146 141.679  0.00  0.00    -0.023 A 
ATOM      5  C19 <0> d          39.226 181.582 141.706  0.00  0.00     0.032 A 
ATOM      6  C20 <0> d          39.371 180.229 142.028  0.00  0.00     0.045 A 
ATOM      7  C21 <0> d          40.674 179.635 142.059  0.00  0.00     0.099 C 
ATOM      8  N22 <0> d          41.707 179.163 142.083  0.00  0.00    -0.191 NA
ATOM      9  C23 <0> d          38.243 179.462 142.321  0.00  0.00     0.023 A 
ATOM     10  C24 <0> d          36.991 180.041 142.290  0.00  0.00     0.012 A 
ATOM     11  C25 <0> d          36.852 181.377 141.971  0.00  0.00    -0.011 A 
ENDROOT
BRANCH   1  12
ATOM     12  C7  <0> d          34.686 182.030 143.019  0.00  0.00     0.050 C 
BRANCH  12  13
ATOM     13  C6  <0> d          34.486 183.329 143.803  0.00  0.00     0.031 C 
BRANCH  13  14
ATOM     14  C5  <0> d          33.095 183.893 143.509  0.00  0.00     0.234 C 
BRANCH  14  15
ATOM     15  N2  <0> d          33.117 185.354 143.657  0.00  0.00    -0.079 N 
ATOM     16  C1  <0> d          32.921 185.981 142.343  0.00  0.00     0.269 C 
ATOM     17  H3  <0> d          34.007 185.641 144.037  0.00  0.00     0.278 HD
ATOM     18  C4  <0> d          32.039 185.771 144.564  0.00  0.00     0.269 C 
ENDBRANCH  14  15
ENDBRANCH  13  14
ENDBRANCH  12  13
ENDBRANCH   1  12
BRANCH   1  19
ATOM     19  C9  <0> d          34.943 182.043 140.543  0.00  0.00    -0.019 A 
ATOM     20  C15 <0> d          33.576 182.221 140.450  0.00  0.00     0.013 A 
ATOM     21  C14 <0> d          32.930 182.008 139.246  0.00  0.00     0.043 A 
ATOM     22  C12 <0> d          33.654 181.606 138.136  0.00  0.00     0.116 A 
ATOM     23  C11 <0> d          35.022 181.423 138.232  0.00  0.00     0.043 A 
ATOM     24  F13 <0> d          33.023 181.392 136.960  0.00  0.00    -0.206 F 
ATOM     25  C10 <0> d          35.666 181.641 139.435  0.00  0.00     0.013 A 
ENDBRANCH   1  19
TORSDOF 5
ENDMDL
MODEL 5
REMARK VINA RESULT:      -8.2      3.451      5.483
REMARK  5 active torsions:
REMARK  status: ('A' for Active; 'I' for Inactive)
REMARK    1  A    between atoms: N2_2  and  C5_5 
REMARK    2  A    between atoms: C5_5  and  C6_6 
REMARK    3  A    between atoms: C6_6  and  C7_7 
REMARK    4  A    between atoms: C7_7  and  C8_8 
REMARK    5  A    between atoms: C8_8  and  C9_9 
ROOT
ATOM      1  C8  <0> d          37.504 183.155 143.764  0.00  0.00     0.116 C 
ATOM      2  O16 <0> d          37.860 184.211 142.854  0.00  0.00    -0.366 OA
ATOM      3  C17 <0> d          39.124 184.705 143.333  0.00  0.00     0.209 C 
ATOM      4  C18 <0> d          39.131 184.453 144.823  0.00  0.00    -0.023 A 
ATOM      5  C19 <0> d          39.892 184.966 145.849  0.00  0.00     0.032 A 
ATOM      6  C20 <0> d          39.668 184.534 147.160  0.00  0.00     0.045 A 
ATOM      7  C21 <0> d          40.454 185.064 148.234  0.00  0.00     0.099 C 
ATOM      8  N22 <0> d          41.078 185.484 149.086  0.00  0.00    -0.191 NA
ATOM      9  C23 <0> d          38.676 183.587 147.418  0.00  0.00     0.023 A 
ATOM     10  C24 <0> d          37.922 183.081 146.379  0.00  0.00     0.012 A 
ATOM     11  C25 <0> d          38.147 183.511 145.086  0.00  0.00    -0.011 A 
ENDROOT
BRANCH   1  12
ATOM     12  C7  <0> d          35.984 183.083 143.921  0.00  0.00     0.050 C 
BRANCH  12  13
ATOM     13  C6  <0> d          35.326 184.078 142.961  0.00  0.00     0.031 C 
BRANCH  13  14
ATOM     14  C5  <0> d          34.673 183.316 141.806  0.00  0.00     0.234 C 
BRANCH  14  15
ATOM     15  N2  <0> d          35.557 183.355 140.633  0.00  0.00    -0.079 N 
ATOM     16  C1  <0> d          35.929 181.985 140.256  0.00  0.00     0.269 C 
ATOM     17  H3  <0> d          36.389 183.880 140.855  0.00  0.00     0.278 HD
ATOM     18  C4  <0> d          34.855 183.997 139.514  0.00  0.00     0.269 C 
ENDBRANCH  14  15
ENDBRANCH  13  14
ENDBRANCH  12  13
ENDBRANCH   1  12
BRANCH   1  19
ATOM     19  C9  <0> d          38.037 181.837 143.266  0.00  0.00    -0.019 A 
ATOM     20  C15 <0> d          37.529 180.652 143.767  0.00  0.00     0.013 A 
ATOM     21  C14 <0> d          38.013 179.442 143.307  0.00  0.00     0.043 A 
ATOM     22  C12 <0> d          39.016 179.417 142.352  0.00  0.00     0.116 A 
ATOM     23  C11 <0> d          39.528 180.603 141.856  0.00  0.00     0.043 A 
ATOM     24  F13 <0> d          39.494 178.234 141.906  0.00  0.00    -0.206 F 
ATOM     25  C10 <0> d          39.039 181.812 142.313  0.00  0.00     0.013 A 
ENDBRANCH   1  19
TORSDOF 5
ENDMDL
MODEL 6
REMARK VINA RESULT:      -8.1      3.554      5.233
REMARK  5 active torsions:
REMARK  status: ('A' for Active; 'I' for Inactive)
REMARK    1  A    between atoms: N2_2  and  C5_5 
REMARK    2  A    between atoms: C5_5  and  C6_6 
REMARK    3  A    between atoms: C6_6  and  C7_7 
REMARK    4  A    between atoms: C7_7  and  C8_8 
REMARK    5  A    between atoms: C8_8  and  C9_9 
ROOT
ATOM      1  C8  <0> d          36.767 181.874 142.313  0.00  0.00     0.116 C 
ATOM      2  O16 <0> d          37.454 183.136 142.228  0.00  0.00    -0.366 OA
ATOM      3  C17 <0> d          38.653 182.858 141.483  0.00  0.00     0.209 C 
ATOM      4  C18 <0> d          38.988 181.411 141.759  0.00  0.00    -0.023 A 
ATOM      5  C19 <0> d          40.141 180.676 141.600  0.00  0.00     0.032 A 
ATOM      6  C20 <0> d          40.154 179.322 141.949  0.00  0.00     0.045 A 
ATOM      7  C21 <0> d          41.350 178.551 141.788  0.00  0.00     0.099 C 
ATOM      8  N22 <0> d          42.298 177.939 141.660  0.00  0.00    -0.191 NA
ATOM      9  C23 <0> d          38.998 178.727 142.457  0.00  0.00     0.023 A 
ATOM     10  C24 <0> d          37.850 179.476 142.611  0.00  0.00     0.012 A 
ATOM     11  C25 <0> d          37.842 180.812 142.264  0.00  0.00    -0.011 A 
ENDROOT
BRANCH   1  12
ATOM     12  C7  <0> d          35.995 181.782 143.630  0.00  0.00     0.050 C 
BRANCH  12  13
ATOM     13  C6  <0> d          36.555 182.805 144.622  0.00  0.00     0.031 C 
BRANCH  13  14
ATOM     14  C5  <0> d          37.540 182.113 145.566  0.00  0.00     0.234 C 
BRANCH  14  15
ATOM     15  N2  <0> d          38.514 183.094 146.062  0.00  0.00    -0.079 N 
ATOM     16  C1  <0> d          38.418 184.324 145.264  0.00  0.00     0.269 C 
ATOM     17  H3  <0> d          39.445 182.714 145.984  0.00  0.00     0.278 HD
ATOM     18  C4  <0> d          38.226 183.401 147.470  0.00  0.00     0.269 C 
ENDBRANCH  14  15
ENDBRANCH  13  14
ENDBRANCH  12  13
ENDBRANCH   1  12
BRANCH   1  19
ATOM     19  C9  <0> d          35.826 181.714 141.147  0.00  0.00    -0.019 A 
ATOM     20  C15 <0> d          35.313 180.468 140.840  0.00  0.00     0.013 A 
ATOM     21  C14 <0> d          34.445 180.321 139.774  0.00  0.00     0.043 A 
ATOM     22  C12 <0> d          34.098 181.421 139.008  0.00  0.00     0.116 A 
ATOM     23  C11 <0> d          34.617 182.667 139.314  0.00  0.00     0.043 A 
ATOM     24  F13 <0> d          33.254 181.277 137.962  0.00  0.00    -0.206 F 
ATOM     25  C10 <0> d          35.480 182.813 140.382  0.00  0.00     0.013 A 
ENDBRANCH   1  19
TORSDOF 5
ENDMDL
MODEL 7
REMARK VINA RESULT:      -7.9      4.652      6.872
REMARK  5 active torsions:
REMARK  status: ('A' for Active; 'I' for Inactive)
REMARK    1  A    between atoms: N2_2  and  C5_5 
REMARK    2  A    between atoms: C5_5  and  C6_6 
REMARK    3  A    between atoms: C6_6  and  C7_7 
REMARK    4  A    between atoms: C7_7  and  C8_8 
REMARK    5  A    between atoms: C8_8  and  C9_9 
ROOT
ATOM      1  C8  <0> d          39.292 183.402 142.567  0.00  0.00     0.116 C 
ATOM      2  O16 <0> d          39.720 184.737 142.242  0.00  0.00    -0.366 OA
ATOM      3  C17 <0> d          40.471 184.601 141.022  0.00  0.00     0.209 C 
ATOM      4  C18 <0> d          41.053 183.206 141.046  0.00  0.00    -0.023 A 
ATOM      5  C19 <0> d          42.080 182.615 140.346  0.00  0.00     0.032 A 
ATOM      6  C20 <0> d          42.401 181.276 140.584  0.00  0.00     0.045 A 
ATOM      7  C21 <0> d          43.469 180.654 139.861  0.00  0.00     0.099 C 
ATOM      8  N22 <0> d          44.316 180.159 139.288  0.00  0.00    -0.191 NA
ATOM      9  C23 <0> d          41.677 180.548 141.531  0.00  0.00     0.023 A 
ATOM     10  C24 <0> d          40.650 181.154 142.225  0.00  0.00     0.012 A 
ATOM     11  C25 <0> d          40.337 182.477 141.985  0.00  0.00    -0.011 A 
ENDROOT
BRANCH   1  12
ATOM     12  C7  <0> d          39.221 183.226 144.085  0.00  0.00     0.050 C 
BRANCH  12  13
ATOM     13  C6  <0> d          40.276 184.113 144.751  0.00  0.00     0.031 C 
BRANCH  13  14
ATOM     14  C5  <0> d          39.701 184.712 146.036  0.00  0.00     0.234 C 
BRANCH  14  15
ATOM     15  N2  <0> d          39.656 183.680 147.080  0.00  0.00    -0.079 N 
ATOM     16  C1  <0> d          40.499 184.092 148.211  0.00  0.00     0.269 C 
ATOM     17  H3  <0> d          39.998 182.807 146.706  0.00  0.00     0.278 HD
ATOM     18  C4  <0> d          38.271 183.507 147.539  0.00  0.00     0.269 C 
ENDBRANCH  14  15
ENDBRANCH  13  14
ENDBRANCH  12  13
ENDBRANCH   1  12
BRANCH   1  19
ATOM     19  C9  <0> d          37.948 183.121 141.948  0.00  0.00    -0.019 A 
ATOM     20  C15 <0> d          36.960 184.088 141.975  0.00  0.00     0.013 A 
ATOM     21  C14 <0> d          35.727 183.834 141.403  0.00  0.00     0.043 A 
ATOM     22  C12 <0> d          35.479 182.606 140.812  0.00  0.00     0.116 A 
ATOM     23  C11 <0> d          36.468 181.638 140.791  0.00  0.00     0.043 A 
ATOM     24  F13 <0> d          34.273 182.354 140.258  0.00  0.00    -0.206 F 
ATOM     25  C10 <0> d          37.701 181.895 141.359  0.00  0.00     0.013 A 
ENDBRANCH   1  19
TORSDOF 5
ENDMDL
MODEL 8
REMARK VINA RESULT:      -7.8      4.063      6.631
REMARK  5 active torsions:
REMARK  status: ('A' for Active; 'I' for Inactive)
REMARK    1  A    between atoms: N2_2  and  C5_5 
REMARK    2  A    between atoms: C5_5  and  C6_6 
REMARK    3  A    between atoms: C6_6  and  C7_7 
REMARK    4  A    between atoms: C7_7  and  C8_8 
REMARK    5  A    between atoms: C8_8  and  C9_9 
ROOT
ATOM      1  C8  <0> d          38.817 181.793 142.644  0.00  0.00     0.116 C 
ATOM      2  O16 <0> d          38.851 181.908 144.079  0.00  0.00    -0.366 OA
ATOM      3  C17 <0> d          37.505 181.629 144.506  0.00  0.00     0.209 C 
ATOM      4  C18 <0> d          36.610 182.051 143.364  0.00  0.00    -0.023 A 
ATOM      5  C19 <0> d          35.262 182.321 143.289  0.00  0.00     0.032 A 
ATOM      6  C20 <0> d          34.698 182.698 142.067  0.00  0.00     0.045 A 
ATOM      7  C21 <0> d          33.297 182.981 141.981  0.00  0.00     0.099 C 
ATOM      8  N22 <0> d          32.185 183.207 141.912  0.00  0.00    -0.191 NA
ATOM      9  C23 <0> d          35.505 182.798 140.932  0.00  0.00     0.023 A 
ATOM     10  C24 <0> d          36.854 182.523 141.023  0.00  0.00     0.012 A 
ATOM     11  C25 <0> d          37.407 182.151 142.232  0.00  0.00    -0.011 A 
ENDROOT
BRANCH   1  12
ATOM     12  C7  <0> d          39.813 182.769 142.014  0.00  0.00     0.050 C 
BRANCH  12  13
ATOM     13  C6  <0> d          40.478 183.600 143.114  0.00  0.00     0.031 C 
BRANCH  13  14
ATOM     14  C5  <0> d          39.611 184.822 143.424  0.00  0.00     0.234 C 
BRANCH  14  15
ATOM     15  N2  <0> d          39.247 184.816 144.847  0.00  0.00    -0.079 N 
ATOM     16  C1  <0> d          40.456 184.632 145.660  0.00  0.00     0.269 C 
ATOM     17  H3  <0> d          38.603 184.060 145.027  0.00  0.00     0.278 HD
ATOM     18  C4  <0> d          38.612 186.094 145.195  0.00  0.00     0.269 C 
ENDBRANCH  14  15
ENDBRANCH  13  14
ENDBRANCH  12  13
ENDBRANCH   1  12
BRANCH   1  19
ATOM     19  C9  <0> d          39.137 180.382 142.227  0.00  0.00    -0.019 A 
ATOM     20  C15 <0> d          40.397 180.072 141.749  0.00  0.00     0.013 A 
ATOM     21  C14 <0> d          40.694 178.777 141.370  0.00  0.00     0.043 A 
ATOM     22  C12 <0> d          39.726 177.791 141.461  0.00  0.00     0.116 A 
ATOM     23  C11 <0> d          38.464 178.103 141.935  0.00  0.00     0.043 A 
ATOM     24  F13 <0> d          40.014 176.525 141.086  0.00  0.00    -0.206 F 
ATOM     25  C10 <0> d          38.170 179.398 142.318  0.00  0.00     0.013 A 
ENDBRANCH   1  19
TORSDOF 5
ENDMDL
MODEL 9
REMARK VINA RESULT:      -7.7      5.142      7.517
REMARK  5 active torsions:
REMARK  status: ('A' for Active; 'I' for Inactive)
REMARK    1  A    between atoms: N2_2  and  C5_5 
REMARK    2  A    between atoms: C5_5  and  C6_6 
REMARK    3  A    between atoms: C6_6  and  C7_7 
REMARK    4  A    between atoms: C7_7  and  C8_8 
REMARK    5  A    between atoms: C8_8  and  C9_9 
ROOT
ATOM      1  C8  <0> d          38.713 182.804 142.936  0.00  0.00     0.116 C 
ATOM      2  O16 <0> d          38.047 181.544 143.133  0.00  0.00    -0.366 OA
ATOM      3  C17 <0> d          39.095 180.558 143.094  0.00  0.00     0.209 C 
ATOM      4  C18 <0> d          40.174 181.135 142.207  0.00  0.00    -0.023 A 
ATOM      5  C19 <0> d          41.241 180.565 141.550  0.00  0.00     0.032 A 
ATOM      6  C20 <0> d          42.093 181.367 140.784  0.00  0.00     0.045 A 
ATOM      7  C21 <0> d          43.204 180.782 140.097  0.00  0.00     0.099 C 
ATOM      8  N22 <0> d          44.087 180.318 139.552  0.00  0.00    -0.191 NA
ATOM      9  C23 <0> d          41.854 182.739 140.691  0.00  0.00     0.023 A 
ATOM     10  C24 <0> d          40.780 183.296 141.355  0.00  0.00     0.012 A 
ATOM     11  C25 <0> d          39.943 182.500 142.110  0.00  0.00    -0.011 A 
ENDROOT
BRANCH   1  12
ATOM     12  C7  <0> d          37.799 183.772 142.182  0.00  0.00     0.050 C 
BRANCH  12  13
ATOM     13  C6  <0> d          36.355 183.269 142.254  0.00  0.00     0.031 C 
BRANCH  13  14
ATOM     14  C5  <0> d          35.569 183.803 141.055  0.00  0.00     0.234 C 
BRANCH  14  15
ATOM     15  N2  <0> d          35.317 185.239 141.236  0.00  0.00    -0.079 N 
ATOM     16  C1  <0> d          34.748 185.794 140.001  0.00  0.00     0.269 C 
ATOM     17  H3  <0> d          36.183 185.709 141.448  0.00  0.00     0.278 HD
ATOM     18  C4  <0> d          34.369 185.434 142.342  0.00  0.00     0.269 C 
ENDBRANCH  14  15
ENDBRANCH  13  14
ENDBRANCH  12  13
ENDBRANCH   1  12
BRANCH   1  19
ATOM     19  C9  <0> d          39.112 183.395 144.263  0.00  0.00    -0.019 A 
ATOM     20  C15 <0> d          40.337 184.020 144.401  0.00  0.00     0.013 A 
ATOM     21  C14 <0> d          40.703 184.567 145.616  0.00  0.00     0.043 A 
ATOM     22  C12 <0> d          39.844 184.479 146.700  0.00  0.00     0.116 A 
ATOM     23  C11 <0> d          38.620 183.848 146.562  0.00  0.00     0.043 A 
ATOM     24  F13 <0> d          40.203 185.008 147.891  0.00  0.00    -0.206 F 
ATOM     25  C10 <0> d          38.255 183.306 145.345  0.00  0.00     0.013 A 
ENDBRANCH   1  19
TORSDOF 5
ENDMDL
