MODEL 1
REMARK VINA RESULT:      -9.3      0.000      0.000
REMARK  5 active torsions:
REMARK  status: ('A' for Active; 'I' for Inactive)
REMARK    1  A    between atoms: C5_10  and  O1_1 
REMARK    2  A    between atoms: C8_13  and  O2_2 
REMARK    3  A    between atoms: C21_26  and  O4_4 
REMARK    4  A    between atoms: C17_22  and  C5_10 
REMARK    5  A    between atoms: C17_22  and  C21_26 
ROOT
HETATM    1  O5  ***     1      41.550 177.706 140.584  1.00  0.00    -0.293 OA
HETATM    2  C1  ***     1      34.800 182.601 141.738  1.00  0.00     0.001 C 
HETATM    3  C2  ***     1      36.256 182.969 141.294  1.00  0.00     0.002 C 
HETATM    4  C3  ***     1      37.375 182.163 142.034  1.00  0.00    -0.002 C 
HETATM    5  C4  ***     1      37.199 180.625 141.732  1.00  0.00     0.031 C 
HETATM    6  C5  ***     1      33.950 183.661 140.911  1.00  0.00     0.128 C 
HETATM    7  C6  ***     1      34.620 181.084 141.354  1.00  0.00     0.045 C 
HETATM    8  C7  ***     1      38.367 179.724 142.352  1.00  0.00    -0.014 C 
HETATM    9  C8  ***     1      35.712 180.130 141.953  1.00  0.00     0.124 C 
HETATM   10  C9  ***     1      36.289 184.504 141.347  1.00  0.00     0.009 C 
HETATM   11  C10 ***     1      34.922 184.893 140.747  1.00  0.00     0.047 C 
HETATM   12  C11 ***     1      38.798 182.641 141.627  1.00  0.00     0.010 C 
HETATM   13  C12 ***     1      34.545 182.795 143.286  1.00  0.00     0.019 C 
HETATM   14  C13 ***     1      39.695 180.340 142.018  1.00  0.00    -0.068 C 
HETATM   15  C14 ***     1      39.893 181.774 142.282  1.00  0.00     0.035 C 
HETATM   16  C15 ***     1      38.256 178.262 141.746  1.00  0.00     0.022 C 
HETATM   17  C16 ***     1      38.288 179.615 143.919  1.00  0.00     0.020 C 
HETATM   18  C18 ***     1      39.573 177.456 141.861  1.00  0.00     0.084 C 
HETATM   19  C19 ***     1      40.724 179.623 141.506  1.00  0.00     0.053 C 
HETATM   20  C20 ***     1      40.668 178.259 141.284  1.00  0.00     0.149 C 
ENDROOT
BRANCH   6  21
HETATM   21  C17 ***     1      32.604 184.042 141.483  1.00  0.00     0.184 C 
HETATM   22  O3  ***     1      31.637 183.246 141.396  1.00  0.00    -0.292 OA
BRANCH  21  23
HETATM   23  C21 ***     1      32.299 185.335 142.141  1.00  0.00     0.245 C 
BRANCH  23  24
HETATM   24  O4  ***     1      30.916 185.397 142.466  1.00  0.00    -0.393 OA
HETATM   25  H30 ***     1      30.489 184.720 141.900  1.00  0.00     0.209 HD
ENDBRANCH  23  24
ENDBRANCH  21  23
ENDBRANCH   6  21
BRANCH   6  26
HETATM   26  O1  ***     1      33.720 183.190 139.572  1.00  0.00    -0.381 OA
HETATM   27  H23 ***     1      33.115 183.834 139.148  1.00  0.00     0.211 HD
ENDBRANCH   6  26
BRANCH   9  28
HETATM   28  O2  ***     1      35.407 179.867 143.321  1.00  0.00    -0.395 OA
HETATM   29  H26 ***     1      35.017 180.697 143.670  1.00  0.00     0.210 HD
ENDBRANCH   9  28
TORSDOF 5
ENDMDL
MODEL 2
REMARK VINA RESULT:      -8.5      1.546      2.087
REMARK  5 active torsions:
REMARK  status: ('A' for Active; 'I' for Inactive)
REMARK    1  A    between atoms: C5_10  and  O1_1 
REMARK    2  A    between atoms: C8_13  and  O2_2 
REMARK    3  A    between atoms: C21_26  and  O4_4 
REMARK    4  A    between atoms: C17_22  and  C5_10 
REMARK    5  A    between atoms: C17_22  and  C21_26 
ROOT
HETATM    1  O5  ***     1      43.117 177.339 139.501  1.00  0.00    -0.293 OA
HETATM    2  C1  ***     1      36.664 181.967 142.294  1.00  0.00     0.001 C 
HETATM    3  C2  ***     1      38.012 182.404 141.625  1.00  0.00     0.002 C 
HETATM    4  C3  ***     1      39.253 181.563 142.075  1.00  0.00    -0.002 C 
HETATM    5  C4  ***     1      39.034 180.053 141.676  1.00  0.00     0.031 C 
HETATM    6  C5  ***     1      35.670 183.075 141.732  1.00  0.00     0.128 C 
HETATM    7  C6  ***     1      36.426 180.485 141.818  1.00  0.00     0.045 C 
HETATM    8  C7  ***     1      40.301 179.128 141.991  1.00  0.00    -0.014 C 
HETATM    9  C8  ***     1      37.615 179.508 142.121  1.00  0.00     0.124 C 
HETATM   10  C9  ***     1      38.045 183.929 141.806  1.00  0.00     0.009 C 
HETATM   11  C10 ***     1      36.587 184.337 141.502  1.00  0.00     0.047 C 
HETATM   12  C11 ***     1      40.573 182.105 141.458  1.00  0.00     0.010 C 
HETATM   13  C12 ***     1      36.698 182.024 143.873  1.00  0.00     0.019 C 
HETATM   14  C13 ***     1      41.541 179.800 141.476  1.00  0.00    -0.068 C 
HETATM   15  C14 ***     1      41.776 181.210 141.823  1.00  0.00     0.035 C 
HETATM   16  C15 ***     1      40.090 177.721 141.290  1.00  0.00     0.022 C 
HETATM   17  C16 ***     1      40.513 178.885 143.531  1.00  0.00     0.020 C 
HETATM   18  C18 ***     1      41.410 176.938 141.091  1.00  0.00     0.084 C 
HETATM   19  C19 ***     1      42.463 179.152 140.723  1.00  0.00     0.053 C 
HETATM   20  C20 ***     1      42.376 177.811 140.396  1.00  0.00     0.149 C 
ENDROOT
BRANCH   6  21
HETATM   21  C17 ***     1      34.450 183.376 142.572  1.00  0.00     0.184 C 
HETATM   22  O3  ***     1      33.534 182.524 142.675  1.00  0.00    -0.292 OA
BRANCH  21  23
HETATM   23  C21 ***     1      34.212 184.649 143.294  1.00  0.00     0.245 C 
BRANCH  23  24
HETATM   24  O4  ***     1      33.012 184.558 144.051  1.00  0.00    -0.393 OA
HETATM   25  H30 ***     1      32.498 183.837 143.631  1.00  0.00     0.209 HD
ENDBRANCH  23  24
ENDBRANCH  21  23
ENDBRANCH   6  21
BRANCH   6  26
HETATM   26  O1  ***     1      35.200 182.714 140.422  1.00  0.00    -0.381 OA
HETATM   27  H23 ***     1      34.222 182.743 140.457  1.00  0.00     0.211 HD
ENDBRANCH   6  26
BRANCH   9  28
HETATM   28  O2  ***     1      37.570 179.123 143.494  1.00  0.00    -0.395 OA
HETATM   29  H26 ***     1      36.987 179.778 143.933  1.00  0.00     0.210 HD
ENDBRANCH   9  28
TORSDOF 5
ENDMDL
MODEL 3
REMARK VINA RESULT:      -8.3     37.351     39.878
REMARK  5 active torsions:
REMARK  status: ('A' for Active; 'I' for Inactive)
REMARK    1  A    between atoms: C5_10  and  O1_1 
REMARK    2  A    between atoms: C8_13  and  O2_2 
REMARK    3  A    between atoms: C21_26  and  O4_4 
REMARK    4  A    between atoms: C17_22  and  C5_10 
REMARK    5  A    between atoms: C17_22  and  C21_26 
ROOT
HETATM    1  O5  ***     1      47.666 173.757 184.488  1.00  0.00    -0.293 OA
HETATM    2  C1  ***     1      48.385 178.763 177.758  1.00  0.00     0.001 C 
HETATM    3  C2  ***     1      49.053 178.861 179.172  1.00  0.00     0.002 C 
HETATM    4  C3  ***     1      48.110 178.461 180.356  1.00  0.00    -0.002 C 
HETATM    5  C4  ***     1      47.663 176.959 180.184  1.00  0.00     0.031 C 
HETATM    6  C5  ***     1      49.540 179.345 176.832  1.00  0.00     0.128 C 
HETATM    7  C6  ***     1      48.020 177.242 177.577  1.00  0.00     0.045 C 
HETATM    8  C7  ***     1      46.787 176.419 181.409  1.00  0.00    -0.014 C 
HETATM    9  C8  ***     1      47.132 176.647 178.726  1.00  0.00     0.124 C 
HETATM   10  C9  ***     1      49.709 180.250 179.183  1.00  0.00     0.009 C 
HETATM   11  C10 ***     1      50.319 180.347 177.769  1.00  0.00     0.047 C 
HETATM   12  C11 ***     1      48.794 178.674 181.737  1.00  0.00     0.010 C 
HETATM   13  C12 ***     1      47.083 179.648 177.615  1.00  0.00     0.019 C 
HETATM   14  C13 ***     1      47.461 176.790 182.699  1.00  0.00    -0.068 C 
HETATM   15  C14 ***     1      47.897 178.182 182.892  1.00  0.00     0.035 C 
HETATM   16  C15 ***     1      46.649 174.844 181.279  1.00  0.00     0.022 C 
HETATM   17  C16 ***     1      45.342 177.039 181.447  1.00  0.00     0.020 C 
HETATM   18  C18 ***     1      46.275 174.155 182.615  1.00  0.00     0.084 C 
HETATM   19  C19 ***     1      47.663 175.899 183.700  1.00  0.00     0.053 C 
HETATM   20  C20 ***     1      47.233 174.586 183.651  1.00  0.00     0.149 C 
ENDROOT
BRANCH   6  21
HETATM   21  C17 ***     1      49.109 179.970 175.526  1.00  0.00     0.184 C 
HETATM   22  O3  ***     1      48.705 179.243 174.586  1.00  0.00    -0.292 OA
BRANCH  21  23
HETATM   23  C21 ***     1      49.146 181.421 175.228  1.00  0.00     0.245 C 
BRANCH  23  24
HETATM   24  O4  ***     1      48.349 181.701 174.085  1.00  0.00    -0.393 OA
HETATM   25  H30 ***     1      47.517 182.080 174.439  1.00  0.00     0.209 HD
ENDBRANCH  23  24
ENDBRANCH  21  23
ENDBRANCH   6  21
BRANCH   6  26
HETATM   26  O1  ***     1      50.495 178.319 176.513  1.00  0.00    -0.381 OA
HETATM   27  H23 ***     1      51.162 178.322 177.230  1.00  0.00     0.211 HD
ENDBRANCH   6  26
BRANCH   9  28
HETATM   28  O2  ***     1      45.777 177.044 178.527  1.00  0.00    -0.395 OA
HETATM   29  H26 ***     1      45.330 176.267 178.127  1.00  0.00     0.210 HD
ENDBRANCH   9  28
TORSDOF 5
ENDMDL
MODEL 4
REMARK VINA RESULT:      -7.7     53.205     55.709
REMARK  5 active torsions:
REMARK  status: ('A' for Active; 'I' for Inactive)
REMARK    1  A    between atoms: C5_10  and  O1_1 
REMARK    2  A    between atoms: C8_13  and  O2_2 
REMARK    3  A    between atoms: C21_26  and  O4_4 
REMARK    4  A    between atoms: C17_22  and  C5_10 
REMARK    5  A    between atoms: C17_22  and  C21_26 
ROOT
HETATM    1  O5  ***     1      37.232 179.528 199.495  1.00  0.00    -0.293 OA
HETATM    2  C1  ***     1      37.870 172.218 195.370  1.00  0.00     0.001 C 
HETATM    3  C2  ***     1      36.762 173.324 195.310  1.00  0.00     0.002 C 
HETATM    4  C3  ***     1      36.425 173.969 196.695  1.00  0.00    -0.002 C 
HETATM    5  C4  ***     1      37.713 174.669 197.275  1.00  0.00     0.031 C 
HETATM    6  C5  ***     1      37.872 171.703 193.865  1.00  0.00     0.128 C 
HETATM    7  C6  ***     1      39.167 172.957 195.874  1.00  0.00     0.045 C 
HETATM    8  C7  ***     1      37.441 175.459 198.639  1.00  0.00    -0.014 C 
HETATM    9  C8  ***     1      38.987 173.730 197.227  1.00  0.00     0.124 C 
HETATM   10  C9  ***     1      35.630 172.679 194.497  1.00  0.00     0.009 C 
HETATM   11  C10 ***     1      36.395 171.953 193.369  1.00  0.00     0.047 C 
HETATM   12  C11 ***     1      35.251 174.984 196.590  1.00  0.00     0.010 C 
HETATM   13  C12 ***     1      37.519 171.027 196.347  1.00  0.00     0.019 C 
HETATM   14  C13 ***     1      36.212 176.308 198.480  1.00  0.00    -0.068 C 
HETATM   15  C14 ***     1      34.993 175.690 197.938  1.00  0.00     0.035 C 
HETATM   16  C15 ***     1      38.707 176.357 198.967  1.00  0.00     0.022 C 
HETATM   17  C16 ***     1      37.186 174.501 199.860  1.00  0.00     0.020 C 
HETATM   18  C18 ***     1      38.393 177.515 199.946  1.00  0.00     0.084 C 
HETATM   19  C19 ***     1      36.177 177.615 198.839  1.00  0.00     0.053 C 
HETATM   20  C20 ***     1      37.242 178.276 199.420  1.00  0.00     0.149 C 
ENDROOT
BRANCH   6  21
HETATM   21  C17 ***     1      38.340 170.285 193.637  1.00  0.00     0.184 C 
HETATM   22  O3  ***     1      37.526 169.333 193.726  1.00  0.00    -0.292 OA
BRANCH  21  23
HETATM   23  C21 ***     1      39.737 169.893 193.332  1.00  0.00     0.245 C 
BRANCH  23  24
HETATM   24  O4  ***     1      40.636 170.863 193.854  1.00  0.00    -0.393 OA
HETATM   25  H30 ***     1      41.346 170.346 194.290  1.00  0.00     0.209 HD
ENDBRANCH  23  24
ENDBRANCH  21  23
ENDBRANCH   6  21
BRANCH   6  26
HETATM   26  O1  ***     1      38.687 172.554 193.041  1.00  0.00    -0.381 OA
HETATM   27  H23 ***     1      38.746 172.122 192.163  1.00  0.00     0.211 HD
ENDBRANCH   6  26
BRANCH   9  28
HETATM   28  O2  ***     1      39.039 172.803 198.310  1.00  0.00    -0.395 OA
HETATM   29  H26 ***     1      38.897 171.919 197.908  1.00  0.00     0.210 HD
ENDBRANCH   9  28
TORSDOF 5
ENDMDL
MODEL 5
REMARK VINA RESULT:      -7.5     25.531     27.546
REMARK  5 active torsions:
REMARK  status: ('A' for Active; 'I' for Inactive)
REMARK    1  A    between atoms: C5_10  and  O1_1 
REMARK    2  A    between atoms: C8_13  and  O2_2 
REMARK    3  A    between atoms: C21_26  and  O4_4 
REMARK    4  A    between atoms: C17_22  and  C5_10 
REMARK    5  A    between atoms: C17_22  and  C21_26 
ROOT
HETATM    1  O5  ***     1      55.519 179.185 162.745  1.00  0.00    -0.293 OA
HETATM    2  C1  ***     1      48.840 174.379 164.526  1.00  0.00     0.001 C 
HETATM    3  C2  ***     1      48.950 175.928 164.319  1.00  0.00     0.002 C 
HETATM    4  C3  ***     1      50.246 176.565 164.922  1.00  0.00    -0.002 C 
HETATM    5  C4  ***     1      51.513 175.938 164.222  1.00  0.00     0.031 C 
HETATM    6  C5  ***     1      47.395 174.091 163.928  1.00  0.00     0.128 C 
HETATM    7  C6  ***     1      50.070 173.770 163.752  1.00  0.00     0.045 C 
HETATM    8  C7  ***     1      52.888 176.609 164.689  1.00  0.00    -0.014 C 
HETATM    9  C8  ***     1      51.460 174.356 164.179  1.00  0.00     0.124 C 
HETATM   10  C9  ***     1      47.582 176.465 164.767  1.00  0.00     0.009 C 
HETATM   11  C10 ***     1      46.602 175.433 164.169  1.00  0.00     0.047 C 
HETATM   12  C11 ***     1      50.251 178.114 164.776  1.00  0.00     0.010 C 
HETATM   13  C12 ***     1      48.893 173.941 166.044  1.00  0.00     0.019 C 
HETATM   14  C13 ***     1      52.748 178.104 164.641  1.00  0.00    -0.068 C 
HETATM   15  C14 ***     1      51.576 178.724 165.279  1.00  0.00     0.035 C 
HETATM   16  C15 ***     1      54.045 176.121 163.721  1.00  0.00     0.022 C 
HETATM   17  C16 ***     1      53.284 176.229 166.163  1.00  0.00     0.020 C 
HETATM   18  C18 ***     1      55.284 177.050 163.739  1.00  0.00     0.084 C 
HETATM   19  C19 ***     1      53.670 178.905 164.053  1.00  0.00     0.053 C 
HETATM   20  C20 ***     1      54.838 178.433 163.485  1.00  0.00     0.149 C 
ENDROOT
BRANCH   6  21
HETATM   21  C17 ***     1      46.674 172.874 164.460  1.00  0.00     0.184 C 
HETATM   22  O3  ***     1      46.024 172.948 165.531  1.00  0.00    -0.292 OA
BRANCH  21  23
HETATM   23  C21 ***     1      46.688 171.536 163.823  1.00  0.00     0.245 C 
BRANCH  23  24
HETATM   24  O4  ***     1      45.562 171.396 162.966  1.00  0.00    -0.393 OA
HETATM   25  H30 ***     1      45.603 170.474 162.636  1.00  0.00     0.209 HD
ENDBRANCH  23  24
ENDBRANCH  21  23
ENDBRANCH   6  21
BRANCH   6  26
HETATM   26  O1  ***     1      47.459 173.951 162.498  1.00  0.00    -0.381 OA
HETATM   27  H23 ***     1      47.009 174.735 162.120  1.00  0.00     0.211 HD
ENDBRANCH   6  26
BRANCH   9  28
HETATM   28  O2  ***     1      51.872 173.750 165.402  1.00  0.00    -0.395 OA
HETATM   29  H26 ***     1      52.733 174.162 165.625  1.00  0.00     0.210 HD
ENDBRANCH   9  28
TORSDOF 5
ENDMDL
MODEL 6
REMARK VINA RESULT:      -7.1     26.750     28.134
REMARK  5 active torsions:
REMARK  status: ('A' for Active; 'I' for Inactive)
REMARK    1  A    between atoms: C5_10  and  O1_1 
REMARK    2  A    between atoms: C8_13  and  O2_2 
REMARK    3  A    between atoms: C21_26  and  O4_4 
REMARK    4  A    between atoms: C17_22  and  C5_10 
REMARK    5  A    between atoms: C17_22  and  C21_26 
ROOT
HETATM    1  O5  ***     1      46.121 186.343 118.356  1.00  0.00    -0.293 OA
HETATM    2  C1  ***     1      39.593 190.011 114.509  1.00  0.00     0.001 C 
HETATM    3  C2  ***     1      40.560 188.883 114.014  1.00  0.00     0.002 C 
HETATM    4  C3  ***     1      42.052 189.084 114.440  1.00  0.00    -0.002 C 
HETATM    5  C4  ***     1      42.151 189.087 116.014  1.00  0.00     0.031 C 
HETATM    6  C5  ***     1      38.230 189.576 113.814  1.00  0.00     0.128 C 
HETATM    7  C6  ***     1      39.647 189.942 116.082  1.00  0.00     0.045 C 
HETATM    8  C7  ***     1      43.656 189.171 116.550  1.00  0.00    -0.014 C 
HETATM    9  C8  ***     1      41.091 190.051 116.686  1.00  0.00     0.124 C 
HETATM   10  C9  ***     1      40.229 188.733 112.521  1.00  0.00     0.009 C 
HETATM   11  C10 ***     1      38.688 188.822 112.506  1.00  0.00     0.047 C 
HETATM   12  C11 ***     1      42.979 187.991 113.836  1.00  0.00     0.010 C 
HETATM   13  C12 ***     1      40.010 191.456 114.022  1.00  0.00     0.019 C 
HETATM   14  C13 ***     1      44.499 188.171 115.812  1.00  0.00    -0.068 C 
HETATM   15  C14 ***     1      44.429 188.136 114.343  1.00  0.00     0.035 C 
HETATM   16  C15 ***     1      43.658 188.869 118.108  1.00  0.00     0.022 C 
HETATM   17  C16 ***     1      44.308 190.584 116.321  1.00  0.00     0.020 C 
HETATM   18  C18 ***     1      45.045 188.432 118.640  1.00  0.00     0.084 C 
HETATM   19  C19 ***     1      45.339 187.315 116.445  1.00  0.00     0.053 C 
HETATM   20  C20 ***     1      45.532 187.310 117.814  1.00  0.00     0.149 C 
ENDROOT
BRANCH   6  21
HETATM   21  C17 ***     1      37.229 190.675 113.543  1.00  0.00     0.184 C 
HETATM   22  O3  ***     1      37.068 191.103 112.374  1.00  0.00    -0.292 OA
BRANCH  21  23
HETATM   23  C21 ***     1      36.405 191.343 114.578  1.00  0.00     0.245 C 
BRANCH  23  24
HETATM   24  O4  ***     1      35.235 190.577 114.834  1.00  0.00    -0.393 OA
HETATM   25  H30 ***     1      35.403 190.130 115.690  1.00  0.00     0.209 HD
ENDBRANCH  23  24
ENDBRANCH  21  23
ENDBRANCH   6  21
BRANCH   6  26
HETATM   26  O1  ***     1      37.558 188.578 114.600  1.00  0.00    -0.381 OA
HETATM   27  H23 ***     1      36.921 189.054 115.172  1.00  0.00     0.211 HD
ENDBRANCH   6  26
BRANCH   9  28
HETATM   28  O2  ***     1      41.499 191.418 116.687  1.00  0.00    -0.395 OA
HETATM   29  H26 ***     1      40.771 191.912 116.254  1.00  0.00     0.210 HD
ENDBRANCH   9  28
TORSDOF 5
ENDMDL
MODEL 7
REMARK VINA RESULT:      -7.0     28.147     31.018
REMARK  5 active torsions:
REMARK  status: ('A' for Active; 'I' for Inactive)
REMARK    1  A    between atoms: C5_10  and  O1_1 
REMARK    2  A    between atoms: C8_13  and  O2_2 
REMARK    3  A    between atoms: C21_26  and  O4_4 
REMARK    4  A    between atoms: C17_22  and  C5_10 
REMARK    5  A    between atoms: C17_22  and  C21_26 
ROOT
HETATM    1  O5  ***     1      66.411 186.122 162.936  1.00  0.00    -0.293 OA
HETATM    2  C1  ***     1      58.906 183.863 159.864  1.00  0.00     0.001 C 
HETATM    3  C2  ***     1      60.177 183.001 160.176  1.00  0.00     0.002 C 
HETATM    4  C3  ***     1      61.530 183.702 159.819  1.00  0.00    -0.002 C 
HETATM    5  C4  ***     1      61.676 185.022 160.669  1.00  0.00     0.031 C 
HETATM    6  C5  ***     1      57.744 182.834 160.213  1.00  0.00     0.128 C 
HETATM    7  C6  ***     1      59.034 185.136 160.783  1.00  0.00     0.045 C 
HETATM    8  C7  ***     1      63.084 185.753 160.461  1.00  0.00    -0.014 C 
HETATM    9  C8  ***     1      60.378 185.926 160.611  1.00  0.00     0.124 C 
HETATM   10  C9  ***     1      59.864 181.632 159.553  1.00  0.00     0.009 C 
HETATM   11  C10 ***     1      58.382 181.419 159.930  1.00  0.00     0.047 C 
HETATM   12  C11 ***     1      62.747 182.762 160.054  1.00  0.00     0.010 C 
HETATM   13  C12 ***     1      58.800 184.303 158.350  1.00  0.00     0.019 C 
HETATM   14  C13 ***     1      64.187 184.739 160.574  1.00  0.00    -0.068 C 
HETATM   15  C14 ***     1      64.082 183.493 159.799  1.00  0.00     0.035 C 
HETATM   16  C15 ***     1      63.239 186.880 161.567  1.00  0.00     0.022 C 
HETATM   17  C16 ***     1      63.218 186.428 159.047  1.00  0.00     0.020 C 
HETATM   18  C18 ***     1      64.710 187.308 161.795  1.00  0.00     0.084 C 
HETATM   19  C19 ***     1      65.284 184.938 161.343  1.00  0.00     0.053 C 
HETATM   20  C20 ***     1      65.515 186.099 162.057  1.00  0.00     0.149 C 
ENDROOT
BRANCH   6  21
HETATM   21  C17 ***     1      56.425 183.040 159.506  1.00  0.00     0.184 C 
HETATM   22  O3  ***     1      55.831 182.062 158.989  1.00  0.00    -0.292 OA
BRANCH  21  23
HETATM   23  C21 ***     1      55.753 184.350 159.332  1.00  0.00     0.245 C 
BRANCH  23  24
HETATM   24  O4  ***     1      55.538 184.955 160.600  1.00  0.00    -0.393 OA
HETATM   25  H30 ***     1      56.371 185.429 160.803  1.00  0.00     0.209 HD
ENDBRANCH  23  24
ENDBRANCH  21  23
ENDBRANCH   6  21
BRANCH   6  26
HETATM   26  O1  ***     1      57.471 182.841 161.624  1.00  0.00    -0.381 OA
HETATM   27  H23 ***     1      56.572 182.469 161.738  1.00  0.00     0.211 HD
ENDBRANCH   6  26
BRANCH   9  28
HETATM   28  O2  ***     1      60.307 186.727 159.433  1.00  0.00    -0.395 OA
HETATM   29  H26 ***     1      59.708 186.247 158.823  1.00  0.00     0.210 HD
ENDBRANCH   9  28
TORSDOF 5
ENDMDL
MODEL 8
REMARK VINA RESULT:      -7.0     16.742     17.742
REMARK  5 active torsions:
REMARK  status: ('A' for Active; 'I' for Inactive)
REMARK    1  A    between atoms: C5_10  and  O1_1 
REMARK    2  A    between atoms: C8_13  and  O2_2 
REMARK    3  A    between atoms: C21_26  and  O4_4 
REMARK    4  A    between atoms: C17_22  and  C5_10 
REMARK    5  A    between atoms: C17_22  and  C21_26 
ROOT
HETATM    1  O5  ***     1      25.258 170.649 150.317  1.00  0.00    -0.293 OA
HETATM    2  C1  ***     1      20.543 176.555 146.609  1.00  0.00     0.001 C 
HETATM    3  C2  ***     1      21.103 176.472 148.069  1.00  0.00     0.002 C 
HETATM    4  C3  ***     1      21.074 175.034 148.687  1.00  0.00    -0.002 C 
HETATM    5  C4  ***     1      21.972 174.073 147.817  1.00  0.00     0.031 C 
HETATM    6  C5  ***     1      20.597 178.123 146.347  1.00  0.00     0.128 C 
HETATM    7  C6  ***     1      21.503 175.652 145.745  1.00  0.00     0.045 C 
HETATM    8  C7  ***     1      22.101 172.602 148.433  1.00  0.00    -0.014 C 
HETATM    9  C8  ***     1      21.655 174.181 146.270  1.00  0.00     0.124 C 
HETATM   10  C9  ***     1      20.388 177.612 148.811  1.00  0.00     0.009 C 
HETATM   11  C10 ***     1      20.423 178.760 147.780  1.00  0.00     0.047 C 
HETATM   12  C11 ***     1      21.545 175.032 150.169  1.00  0.00     0.010 C 
HETATM   13  C12 ***     1      19.056 176.037 146.474  1.00  0.00     0.019 C 
HETATM   14  C13 ***     1      22.425 172.707 149.896  1.00  0.00    -0.068 C 
HETATM   15  C14 ***     1      21.611 173.599 150.737  1.00  0.00     0.035 C 
HETATM   16  C15 ***     1      23.244 171.825 147.657  1.00  0.00     0.022 C 
HETATM   17  C16 ***     1      20.770 171.771 148.314  1.00  0.00     0.020 C 
HETATM   18  C18 ***     1      23.804 170.617 148.450  1.00  0.00     0.084 C 
HETATM   19  C19 ***     1      23.424 171.996 150.475  1.00  0.00     0.053 C 
HETATM   20  C20 ***     1      24.204 171.081 149.792  1.00  0.00     0.149 C 
ENDROOT
BRANCH   6  21
HETATM   21  C17 ***     1      19.622 178.673 145.332  1.00  0.00     0.184 C 
HETATM   22  O3  ***     1      19.669 178.280 144.141  1.00  0.00    -0.292 OA
BRANCH  21  23
HETATM   23  C21 ***     1      18.590 179.698 145.618  1.00  0.00     0.245 C 
BRANCH  23  24
HETATM   24  O4  ***     1      17.344 179.069 145.884  1.00  0.00    -0.393 OA
HETATM   25  H30 ***     1      16.670 179.650 145.473  1.00  0.00     0.209 HD
ENDBRANCH  23  24
ENDBRANCH  21  23
ENDBRANCH   6  21
BRANCH   6  26
HETATM   26  O1  ***     1      21.913 178.519 145.924  1.00  0.00    -0.381 OA
HETATM   27  H23 ***     1      22.423 177.694 145.785  1.00  0.00     0.211 HD
ENDBRANCH   6  26
BRANCH   9  28
HETATM   28  O2  ***     1      20.513 173.421 145.879  1.00  0.00    -0.395 OA
HETATM   29  H26 ***     1      19.951 174.036 145.359  1.00  0.00     0.210 HD
ENDBRANCH   9  28
TORSDOF 5
ENDMDL
MODEL 9
REMARK VINA RESULT:      -6.9     52.830     55.183
REMARK  5 active torsions:
REMARK  status: ('A' for Active; 'I' for Inactive)
REMARK    1  A    between atoms: C5_10  and  O1_1 
REMARK    2  A    between atoms: C8_13  and  O2_2 
REMARK    3  A    between atoms: C21_26  and  O4_4 
REMARK    4  A    between atoms: C17_22  and  C5_10 
REMARK    5  A    between atoms: C17_22  and  C21_26 
ROOT
HETATM    1  O5  ***     1      37.591 166.784 191.375  1.00  0.00    -0.293 OA
HETATM    2  C1  ***     1      38.133 172.852 197.185  1.00  0.00     0.001 C 
HETATM    3  C2  ***     1      38.378 172.902 195.639  1.00  0.00     0.002 C 
HETATM    4  C3  ***     1      39.096 171.637 195.062  1.00  0.00    -0.002 C 
HETATM    5  C4  ***     1      38.202 170.364 195.323  1.00  0.00     0.031 C 
HETATM    6  C5  ***     1      37.527 174.298 197.448  1.00  0.00     0.128 C 
HETATM    7  C6  ***     1      37.175 171.622 197.413  1.00  0.00     0.045 C 
HETATM    8  C7  ***     1      38.797 169.031 194.666  1.00  0.00    -0.014 C 
HETATM    9  C8  ***     1      37.707 170.269 196.823  1.00  0.00     0.124 C 
HETATM   10  C9  ***     1      39.008 174.283 195.403  1.00  0.00     0.009 C 
HETATM   11  C10 ***     1      38.172 175.198 196.324  1.00  0.00     0.047 C 
HETATM   12  C11 ***     1      39.403 171.787 193.544  1.00  0.00     0.010 C 
HETATM   13  C12 ***     1      39.458 172.661 198.027  1.00  0.00     0.019 C 
HETATM   14  C13 ***     1      39.187 169.315 193.243  1.00  0.00    -0.068 C 
HETATM   15  C14 ***     1      40.016 170.497 192.962  1.00  0.00     0.035 C 
HETATM   16  C15 ***     1      37.690 167.896 194.731  1.00  0.00     0.022 C 
HETATM   17  C16 ***     1      40.084 168.508 195.403  1.00  0.00     0.020 C 
HETATM   18  C18 ***     1      37.934 166.752 193.717  1.00  0.00     0.084 C 
HETATM   19  C19 ***     1      38.824 168.512 192.214  1.00  0.00     0.053 C 
HETATM   20  C20 ***     1      38.105 167.342 192.375  1.00  0.00     0.149 C 
ENDROOT
BRANCH   6  21
HETATM   21  C17 ***     1      37.709 174.865 198.836  1.00  0.00     0.184 C 
HETATM   22  O3  ***     1      37.016 174.430 199.788  1.00  0.00    -0.292 OA
BRANCH  21  23
HETATM   23  C21 ***     1      38.651 175.955 199.190  1.00  0.00     0.245 C 
BRANCH  23  24
HETATM   24  O4  ***     1      39.545 175.511 200.201  1.00  0.00    -0.393 OA
HETATM   25  H30 ***     1      39.203 175.898 201.034  1.00  0.00     0.209 HD
ENDBRANCH  23  24
ENDBRANCH  21  23
ENDBRANCH   6  21
BRANCH   6  26
HETATM   26  O1  ***     1      36.117 174.313 197.169  1.00  0.00    -0.381 OA
HETATM   27  H23 ***     1      35.983 174.940 196.428  1.00  0.00     0.211 HD
ENDBRANCH   6  26
BRANCH   9  28
HETATM   28  O2  ***     1      38.688 169.725 197.703  1.00  0.00    -0.395 OA
HETATM   29  H26 ***     1      39.355 170.434 197.827  1.00  0.00     0.210 HD
ENDBRANCH   9  28
TORSDOF 5
ENDMDL
MODEL 10
REMARK VINA RESULT:      -6.9     26.893     31.765
REMARK  5 active torsions:
REMARK  status: ('A' for Active; 'I' for Inactive)
REMARK    1  A    between atoms: C5_10  and  O1_1 
REMARK    2  A    between atoms: C8_13  and  O2_2 
REMARK    3  A    between atoms: C21_26  and  O4_4 
REMARK    4  A    between atoms: C17_22  and  C5_10 
REMARK    5  A    between atoms: C17_22  and  C21_26 
ROOT
HETATM    1  O5  ***     1       1.408 186.137 134.766  1.00  0.00    -0.293 OA
HETATM    2  C1  ***     1       9.141 186.075 131.441  1.00  0.00     0.001 C 
HETATM    3  C2  ***     1       8.659 186.453 132.883  1.00  0.00     0.002 C 
HETATM    4  C3  ***     1       7.306 187.238 132.922  1.00  0.00    -0.002 C 
HETATM    5  C4  ***     1       6.165 186.346 132.298  1.00  0.00     0.031 C 
HETATM    6  C5  ***     1      10.559 185.425 131.752  1.00  0.00     0.128 C 
HETATM    7  C6  ***     1       8.026 185.122 130.868  1.00  0.00     0.045 C 
HETATM    8  C7  ***     1       4.716 187.016 132.396  1.00  0.00    -0.014 C 
HETATM    9  C8  ***     1       6.578 185.724 130.902  1.00  0.00     0.124 C 
HETATM   10  C9  ***     1       9.898 187.078 133.542  1.00  0.00     0.009 C 
HETATM   11  C10 ***     1      11.037 186.151 133.068  1.00  0.00     0.047 C 
HETATM   12  C11 ***     1       6.931 187.673 134.367  1.00  0.00     0.010 C 
HETATM   13  C12 ***     1       9.318 187.325 130.489  1.00  0.00     0.019 C 
HETATM   14  C13 ***     1       4.502 187.524 133.794  1.00  0.00    -0.068 C 
HETATM   15  C14 ***     1       5.547 188.355 134.410  1.00  0.00     0.035 C 
HETATM   16  C15 ***     1       3.626 185.927 132.019  1.00  0.00     0.022 C 
HETATM   17  C16 ***     1       4.543 188.243 131.427  1.00  0.00     0.020 C 
HETATM   18  C18 ***     1       2.212 186.277 132.544  1.00  0.00     0.084 C 
HETATM   19  C19 ***     1       3.374 187.265 134.499  1.00  0.00     0.053 C 
HETATM   20  C20 ***     1       2.303 186.553 133.991  1.00  0.00     0.149 C 
ENDROOT
BRANCH   6  21
HETATM   21  C17 ***     1      11.583 185.477 130.642  1.00  0.00     0.184 C 
HETATM   22  O3  ***     1      11.534 184.646 129.703  1.00  0.00    -0.292 OA
BRANCH  21  23
HETATM   23  C21 ***     1      12.707 186.442 130.571  1.00  0.00     0.245 C 
BRANCH  23  24
HETATM   24  O4  ***     1      13.931 185.780 130.861  1.00  0.00    -0.393 OA
HETATM   25  H30 ***     1      14.085 185.931 131.817  1.00  0.00     0.209 HD
ENDBRANCH  23  24
ENDBRANCH  21  23
ENDBRANCH   6  21
BRANCH   6  26
HETATM   26  O1  ***     1      10.411 184.044 132.123  1.00  0.00    -0.381 OA
HETATM   27  H23 ***     1       9.717 184.013 132.814  1.00  0.00     0.211 HD
ENDBRANCH   6  26
BRANCH   9  28
HETATM   28  O2  ***     1       6.422 186.634 129.815  1.00  0.00    -0.395 OA
HETATM   29  H26 ***     1       7.179 187.255 129.878  1.00  0.00     0.210 HD
ENDBRANCH   9  28
TORSDOF 5
ENDMDL
